258-121528-0000 ",BUT,TELEMACHUS,COULD,GET,NO,REST,ALL,NIGHT,FOR,THINKING,OF,HIS,UNHAPPY,FATHER,,SO,MINERVA,WENT,CLOSE,UP,TO,HIM,AND,SAID,,TELEMACHUS,,YOU,SHOULD,NOT,REMAIN,SO,FAR,AWAY,FROM,HOME,ANY,LONGER,,NOR,LEAVE,YOUR,PROPERTY,WITH,SUCH,DANGEROUS,PEOPLE,IN,YOUR,HOUSE," "0.180,0.380,0.970,1.120,1.320,1.470,1.780,2.000,2.310,2.430,2.790,2.900,3.040,3.480,4.010,4.620,4.810,5.230,5.620,5.960,6.160,6.300,6.530,6.720,7.090,7.900,8.810,9.320,9.450,9.700,9.880,10.250,10.470,10.820,11.080,11.260,11.580,11.760,12.300,12.720,12.950,13.200,13.310,13.780,13.920,14.210,14.610,15.000,15.070,15.180,15.730,15.985" 
258-121528-0001 ",THEY,WILL,,EAT,UP,EVERYTHING,YOU,HAVE,AMONG,THEM,,AND,YOU,WILL,HAVE,BEEN,ON,A,FOOL'S,ERRAND," "0.330,0.480,0.620,0.650,0.830,0.980,1.480,1.570,1.770,2.090,2.370,2.840,2.990,3.070,3.170,3.370,3.500,3.620,3.710,4.140,4.670,5.15" 
258-121528-0002 ",AND,HAS,BEEN,GREATLY,INCREASING,HIS,WEDDING,PRESENTS,,I,HOPE,NOTHING,VALUABLE,MAY,HAVE,BEEN,TAKEN,FROM,THE,HOUSE,IN,SPITE,OF,YOU,,BUT,YOU,KNOW,WHAT,WOMEN,ARE,,THEY,ALWAYS,WANT,TO,DO,THE,BEST,THEY,CAN,FOR,THE,MAN,WHO,MARRIES,THEM," "0.140,0.280,0.470,0.630,1.080,1.540,1.700,1.980,2.630,3.780,3.920,4.120,4.420,4.940,5.110,5.280,5.400,5.710,5.830,5.930,6.470,6.560,6.880,7.010,7.270,8.050,8.220,8.360,8.540,8.730,9.130,9.500,10.000,10.190,10.480,10.630,10.730,10.870,10.980,11.280,11.400,11.680,11.770,11.870,12.120,12.260,12.680,13.040,13.205" 
258-121528-0003 ",AND,NEVER,GIVE,ANOTHER,THOUGHT,TO,THE,CHILDREN,OF,THEIR,FIRST,HUSBAND,,NOR,TO,THEIR,FATHER,EITHER,WHEN,HE,IS,DEAD,AND,DONE,WITH,,GO,HOME,THEREFORE,AND,PUT,EVERYTHING,IN,CHARGE,OF,THE,MOST,RESPECTABLE,WOMAN,SERVANT,THAT,YOU,HAVE,,UNTIL,IT,SHALL,PLEASE,HEAVEN,TO,SEND,YOU,A,WIFE,OF,YOUR,OWN," "0.240,0.460,0.710,0.850,1.190,1.540,1.630,1.740,2.120,2.230,2.350,2.630,3.210,3.590,3.850,3.990,4.190,4.660,4.920,5.070,5.190,5.380,5.680,5.980,6.230,6.540,7.450,7.680,7.960,8.460,8.600,8.750,9.190,9.300,9.620,9.700,9.780,10.050,10.630,10.920,11.250,11.390,11.510,11.970,12.360,12.810,12.930,13.220,13.570,13.890,14.020,14.320,14.620,14.700,14.980,15.080,15.260,15.650,16.1" 
258-121528-0004 ",LET,ME,TELL,YOU,ALSO,OF,ANOTHER,MATTER,,WHICH,YOU,HAD,BETTER,ATTEND,TO," "0.520,0.690,0.820,1.060,1.230,1.520,1.620,1.960,2.400,2.560,2.790,2.860,3.040,3.310,3.670,3.980,4.43" 
258-121528-0005 ",AND,THEY,MEAN,TO,KILL,YOU,BEFORE,YOU,CAN,REACH,HOME,,I,DO,NOT,MUCH,THINK,THEY,WILL,SUCCEED,,IT,IS,MORE,LIKELY,THAT,SOME,OF,THOSE,WHO,ARE,NOW,EATING,UP,YOUR,PROPERTY,WILL,FIND,A,GRAVE,THEMSELVES,,SAIL,NIGHT,AND,DAY,,AND,KEEP,YOUR,SHIP,WELL,AWAY,FROM,THE,ISLANDS," "0.150,0.300,0.410,0.660,0.770,1.030,1.180,1.480,1.580,1.780,1.990,2.420,3.250,3.420,3.570,3.760,4.000,4.230,4.350,4.460,5.090,5.500,5.670,5.780,5.980,6.350,6.680,6.930,7.060,7.350,7.500,7.550,7.750,8.030,8.160,8.260,8.740,8.890,9.150,9.210,9.530,10.300,11.070,11.440,11.680,11.850,12.250,12.480,12.670,12.860,12.970,13.270,13.490,13.730,13.870,13.990,14.670,14.915" 
258-121528-0006 ",THE,GOD,WHO,WATCHES,OVER,YOU,AND,PROTECTS,YOU,WILL,SEND,YOU,A,FAIR,WIND,,AS,SOON,AS,YOU,GET,TO,ITHACA,,SEND,YOUR,SHIP,AND,MEN,ON,TO,THE,TOWN," "0.320,0.430,0.670,0.800,1.210,1.430,1.550,1.660,2.130,2.250,2.370,2.640,2.760,2.820,3.080,3.540,4.580,4.740,4.970,5.090,5.160,5.330,5.430,6.040,6.070,6.360,6.470,6.760,6.900,7.080,7.280,7.400,7.540,7.990,8.155" 
258-121528-0007 ",HE,IS,WELL,DISPOSED,TOWARDS,YOU,,STAY,WITH,HIM,THEREFORE,FOR,THE,NIGHT," "0.440,0.580,0.700,0.900,1.380,1.730,2.040,2.070,2.380,2.580,2.810,3.270,3.410,3.510,3.930,4.145" 
258-121528-0008 ",THEN,SHE,WENT,BACK,TO,OLYMPUS," "0.540,0.730,0.880,1.050,1.250,1.360,2.030,2.195" 
258-121528-0009 ",AND,LET,HIM,SAY,GOOD,BYE,TO,US,IN,THE,USUAL,WAY,,SO,LONG,AS,HE,LIVES," "0.160,0.350,0.480,0.640,0.830,0.990,1.210,1.380,1.590,1.660,1.760,2.200,2.580,3.480,3.700,3.970,4.080,4.210,4.780,4.895" 
258-121528-0010 ",AS,HE,SPOKE,DAY,BEGAN,TO,BREAK," "0.530,0.780,0.950,1.500,1.680,2.030,2.140,2.560,2.75" 
258-121528-0011 ",SAID,HE,,LET,ME,GO,BACK,NOW,TO,MY,OWN,COUNTRY,FOR,I,WANT,TO,GET,HOME," "0.120,0.390,0.710,1.210,1.440,1.550,1.790,2.160,2.350,2.510,2.660,2.840,3.380,3.630,3.770,4.010,4.110,4.290,4.730,5.195" 
258-121528-0012 ",IF,YOU,INSIST,ON,GOING,I,WILL,NOT,DETAIN,YOU,,I,DO,NOT,LIKE,TO,SEE,A,HOST,EITHER,TOO,FOND,OF,HIS,GUEST,OR,TOO,RUDE,TO,HIM,,MODERATION,IS,BEST,IN,ALL,THINGS,,AND,NOT,LETTING,A,MAN,GO,WHEN,HE,WANTS,TO,DO,SO,IS,AS,BAD,AS,TELLING,HIM,TO,GO,IF,HE,WOULD,LIKE,TO,STAY," "0.260,0.460,0.570,1.020,1.180,1.590,1.720,1.840,2.030,2.430,2.730,3.230,3.400,3.540,3.740,3.990,4.110,4.280,4.370,4.860,5.090,5.370,5.670,5.730,5.900,6.300,6.390,6.640,6.860,6.980,7.300,7.930,8.780,8.960,9.290,9.390,9.620,10.170,10.460,10.690,10.880,11.160,11.240,11.510,11.680,11.820,11.920,12.210,12.330,12.510,12.830,13.020,13.150,13.400,13.520,13.860,13.970,14.130,14.500,14.660,14.830,14.990,15.180,15.300,15.810,16.3" 
258-121528-0013 ",ONE,SHOULD,TREAT,A,GUEST,WELL,AS,LONG,AS,HE,IS,IN,THE,HOUSE,,AND,SPEED,HIM,WHEN,HE,WANTS,TO,LEAVE,IT,,WAIT,THEN,,TILL,I,CAN,GET,YOUR,BEAUTIFUL,PRESENTS,INTO,YOUR,CHARIOT,,AND,TILL,YOU,HAVE,YOURSELF,SEEN,THEM," "0.560,0.840,1.080,1.290,1.370,1.700,2.070,2.270,2.470,2.580,2.710,2.830,2.910,2.990,3.520,3.920,4.100,4.390,4.490,4.600,4.680,4.960,5.090,5.320,5.610,6.740,7.040,7.420,7.460,7.660,7.750,7.930,8.120,8.270,8.670,9.100,9.270,9.390,9.970,10.400,10.560,10.750,11.060,11.310,11.750,12.020,12.320,12.625" 
258-121528-0014 ",I,WILL,TELL,THE,WOMEN,TO,PREPARE,A,SUFFICIENT,DINNER,FOR,YOU,,OF,WHAT,THERE,MAY,BE,IN,THE,HOUSE,,IT,WILL,BE,AT,ONCE,MORE,PROPER,AND,CHEAPER,FOR,YOU,TO,GET,YOUR,DINNER,BEFORE,SETTING,OUT,ON,SUCH,A,LONG,JOURNEY,,IF,MOREOVER,YOU,HAVE,A,FANCY,FOR,MAKING,A,TOUR,IN,HELLAS,,OR,IN,THE,PELOPONNESE," "0.360,0.500,0.590,0.810,0.910,1.160,1.270,1.740,1.810,2.290,2.520,2.670,2.990,3.110,3.310,3.520,3.630,3.790,3.970,4.090,4.180,4.760,5.320,5.470,5.630,5.830,5.980,6.320,6.530,7.100,7.250,7.610,7.750,7.920,8.030,8.220,8.340,8.630,8.950,9.270,9.390,9.500,9.710,9.800,10.070,10.540,11.450,11.710,12.200,12.330,12.470,12.560,12.930,13.070,13.410,13.500,13.760,13.830,14.420,14.450,14.550,14.630,14.710,15.480,15.66" 
258-121528-0015 ",I,WILL,YOKE,MY,HORSES,AND,WILL,CONDUCT,YOU,MYSELF,THROUGH,ALL,OUR,PRINCIPAL,CITIES,,NO,ONE,WILL,SEND,US,AWAY,EMPTY,HANDED,,EVERY,ONE,WILL,GIVE,US,SOMETHING,,A,BRONZE,TRIPOD,,A,COUPLE,OF,MULES,,OR,A,GOLD,CUP," "0.130,0.400,0.540,0.800,0.930,1.420,1.650,1.810,2.240,2.330,2.810,2.980,3.210,3.340,3.760,4.320,5.030,5.240,5.470,5.590,5.810,5.950,6.220,6.500,7.050,7.550,7.840,8.030,8.130,8.280,8.410,8.970,9.380,9.500,9.960,10.630,10.870,11.000,11.290,11.390,12.030,12.130,12.310,12.360,12.680,13.060,13.465" 
258-121528-0016 ",FOR,WHEN,I,CAME,AWAY,I,LEFT,MY,PROPERTY,WITHOUT,PROTECTION,,AND,FEAR,THAT,WHILE,LOOKING,FOR,MY,FATHER,I,SHALL,COME,TO,RUIN,MYSELF,,OR,FIND,THAT,SOMETHING,VALUABLE,HAS,BEEN,STOLEN,DURING,MY,ABSENCE," "0.310,0.430,0.600,0.690,1.010,1.310,1.430,1.670,1.770,2.220,2.550,3.180,3.580,3.820,4.040,4.200,4.410,4.720,4.820,5.000,5.460,5.560,5.730,5.950,6.100,6.330,6.980,7.230,7.520,7.800,7.940,8.280,8.770,8.950,9.100,9.500,9.720,9.900,10.670,11.145" 
258-121528-0017 ",WHEN,HE,REACHED,THE,PLACE,WHERE,THE,TREASURES,OF,HIS,HOUSE,WERE,KEPT,,HE,SELECTED,A,DOUBLE,CUP," "0.440,0.640,0.800,1.030,1.120,1.480,1.630,1.770,2.190,2.300,2.420,2.800,2.930,3.370,3.940,4.030,4.510,4.600,4.860,5.280,5.375" 
258-121528-0018 ",I,WILL,NOW,PRESENT,YOU,WITH,THE,FINEST,AND,MOST,PRECIOUS,PIECE,OF,PLATE,IN,ALL,MY,HOUSE,,IT,IS,A,MIXING,BOWL,OF,PURE,SILVER,,EXCEPT,THE,RIM,WHICH,IS,INLAID,WITH,GOLD,,AND,IT,IS,THE,WORK,OF,VULCAN," "0.550,0.700,0.810,0.970,1.460,1.550,1.680,1.780,2.370,2.570,2.770,3.150,3.380,3.480,3.850,4.020,4.140,4.280,4.900,5.790,5.930,6.070,6.120,6.600,6.890,7.030,7.340,7.930,8.370,8.740,8.870,9.160,9.360,9.470,9.930,10.100,10.570,10.900,11.080,11.190,11.400,11.500,11.770,11.930,12.530,12.97" 
258-121528-0019 ",I,SHOULD,LIKE,TO,GIVE,IT,TO,YOU,,WITH,THESE,WORDS,HE,PLACED,THE,DOUBLE,CUP,IN,THE,HANDS,OF,TELEMACHUS,,WHILE,MEGAPENTHES,,BROUGHT,THE,BEAUTIFUL,MIXING,BOWL,AND,SET,IT,BEFORE,HIM,,HARD,BY,STOOD,LOVELY,HELEN,WITH,THE,ROBE,,READY,IN,HER,HAND," "0.380,0.560,0.790,0.990,1.110,1.280,1.390,1.540,1.940,3.630,3.890,4.140,4.490,4.600,4.930,5.020,5.260,5.560,5.650,5.720,6.030,6.120,6.890,7.090,7.290,8.080,8.110,8.350,8.440,8.880,9.270,9.570,9.680,9.840,9.960,10.390,10.740,11.580,11.920,12.210,12.510,12.840,13.200,13.310,13.430,13.760,13.810,14.130,14.220,14.520,15.020,15.43" 
258-121528-0020 ",I,TOO,MY,SON,,SAID,SHE,,HAVE,SOMETHING,FOR,YOU,AS,A,KEEPSAKE,FROM,THE,HAND,OF,HELEN,,IT,IS,FOR,YOUR,BRIDE,TO,WEAR,UPON,HER,WEDDING,DAY,,TILL,THEN,,GET,YOUR,DEAR,MOTHER,TO,KEEP,IT,FOR,YOU," "0.470,0.680,0.930,1.130,1.600,1.740,2.040,2.410,2.740,2.970,3.340,3.500,3.770,3.890,3.970,4.600,4.770,4.840,5.150,5.220,5.710,6.440,6.630,6.840,6.970,7.140,7.520,7.640,7.840,8.120,8.280,8.640,8.960,9.680,9.950,10.330,10.700,10.930,11.070,11.330,11.610,11.740,12.020,12.130,12.350,12.570,12.875" 
258-121528-0021 ",SO,SAYING,SHE,GAVE,THE,ROBE,OVER,TO,HIM,,AND,HE,RECEIVED,IT,GLADLY," "0.530,0.780,1.230,1.430,1.620,1.730,2.040,2.310,2.460,2.710,2.910,3.130,3.260,3.740,3.860,4.490,4.89" 
258-121528-0022 ",AND,ADMIRED,THEM,ALL,AS,HE,DID,SO," "0.170,0.330,0.790,1.010,1.300,1.430,1.530,1.770,2.120,2.595" 
258-121528-0023 ",AND,THEY,BOTH,OF,THEM,SAT,DOWN,TO,TABLE,,A,MAID,SERVANT,BROUGHT,THEM,WATER,IN,A,BEAUTIFUL,,GOLDEN,EWER,,AND,POURED,IT,INTO,A,SILVER,BASIN,FOR,THEM,TO,WASH,THEIR,HANDS,,AND,SHE,DREW,A,CLEAN,TABLE,BESIDE,THEM,,AN,UPPER,SERVANT,BROUGHT,THEM,BREAD," "0.290,0.540,0.720,1.010,1.110,1.300,1.550,1.760,1.870,2.430,2.930,3.040,3.330,3.680,3.910,4.050,4.380,4.480,4.540,5.080,5.200,5.660,6.210,6.560,6.730,6.970,7.100,7.340,7.430,7.750,8.120,8.220,8.400,8.530,8.770,8.980,9.470,9.910,10.110,10.220,10.430,10.500,10.780,11.100,11.560,11.820,12.690,12.900,13.180,13.610,13.850,14.040,14.420,14.585" 
258-121528-0024 ",AND,OFFERED,THEM,MANY,GOOD,THINGS,OF,WHAT,THERE,WAS,IN,THE,HOUSE,,ETEONEUS,CARVED,THE,MEAT,,AND,GAVE,THEM,EACH,THEIR,PORTIONS,,WHILE,MEGAPENTHES,,POURED,OUT,THE,WINE,,THEN,THEY,LAID,THEIR,HANDS,UPON,THE,GOOD,THINGS,THAT,WERE,BEFORE,THEM," "0.250,0.430,0.740,0.880,1.120,1.330,1.670,1.860,2.120,2.300,2.630,2.720,2.800,3.380,4.440,5.330,5.720,5.800,6.250,6.280,6.470,6.770,6.940,7.230,7.410,8.100,8.350,8.620,9.370,9.400,9.690,9.850,9.950,10.430,11.090,11.570,11.740,11.960,12.090,12.360,12.580,12.680,12.880,13.120,13.240,13.320,13.710,14.060,14.335" 
258-121528-0025 ",BUT,AS,SOON,AS,THEY,HAD,HAD,ENOUGH,TO,EAT,AND,DRINK," "0.300,0.470,0.640,0.870,0.980,1.140,1.300,1.550,1.840,2.060,2.330,2.460,2.880,3.005" 
258-121528-0026 ",AND,TOOK,THEIR,PLACES,IN,THE,CHARIOT,,THEY,DROVE,OUT,THROUGH,THE,INNER,GATEWAY,,AND,UNDER,THE,ECHOING,GATEHOUSE,OF,THE,OUTER,COURT," "0.190,0.420,0.640,0.780,1.290,1.440,1.520,2.150,3.010,3.310,3.590,3.990,4.120,4.280,4.480,5.070,5.460,5.640,5.910,6.030,6.480,7.040,7.140,7.270,7.540,8.000,8.25" 
258-121528-0027 ",THAT,THEY,MIGHT,MAKE,A,,DRINK,OFFERING,BEFORE,THEY,SET,OUT,,HE,STOOD,IN,FRONT,OF,THE,HORSES,AND,PLEDGED,THEM,,SAYING,,FAREWELL,TO,BOTH,OF,YOU,,SEE,THAT,YOU,TELL,NESTOR,HOW,I,HAVE,TREATED,YOU," "0.210,0.380,0.490,0.810,1.060,1.210,1.240,1.480,1.950,2.330,2.450,2.710,3.170,3.830,3.990,4.290,4.410,4.640,4.740,4.850,5.240,5.390,5.810,6.140,6.210,6.770,7.610,8.090,8.240,8.520,8.620,8.970,9.530,9.930,10.260,10.510,10.770,11.240,11.480,11.660,11.800,12.210,12.490,12.565" 
258-121528-0028 ",WE,WILL,BE,SURE,SIR,,ANSWERED,TELEMACHUS," "0.520,0.680,0.820,0.970,1.280,1.730,1.820,2.260,2.960,3.085" 
258-121528-0029 ",I,WISH,,I,WERE,AS,CERTAIN,OF,FINDING,ULYSSES,RETURNED,WHEN,I,GET,BACK,TO,ITHACA,,THAT,I,MIGHT,TELL,HIM,OF,THE,VERY,GREAT,KINDNESS,YOU,HAVE,SHOWN,ME,,AND,OF,THE,MANY,BEAUTIFUL,PRESENTS,I,AM,TAKING,WITH,ME," "0.480,0.650,0.980,1.040,1.270,1.590,1.840,2.280,2.480,2.860,3.470,3.830,3.940,4.030,4.250,4.460,4.560,5.150,5.550,5.730,5.820,6.060,6.340,6.510,6.600,6.690,7.070,7.310,7.900,7.970,8.100,8.430,8.670,9.160,9.330,9.430,9.520,9.780,10.140,10.580,10.710,10.810,11.220,11.460,11.690,12.22" 
258-121528-0030 ",AS,HE,WAS,THUS,SPEAKING,,A,BIRD,FLEW,ON,HIS,RIGHT,HAND,,AN,EAGLE,WITH,A,GREAT,WHITE,GOOSE,IN,ITS,TALONS,WHICH,IT,HAD,CARRIED,OFF,FROM,THE,FARM,YARD,,AND,ALL,THE,MEN,AND,WOMEN,WERE,RUNNING,AFTER,IT,AND,SHOUTING," "0.540,0.760,0.950,1.150,1.340,1.930,1.960,2.090,2.330,2.570,2.650,2.820,2.990,3.600,3.860,4.010,4.320,4.480,4.560,4.810,5.140,5.470,5.570,5.750,6.250,6.450,6.650,6.890,7.250,7.470,7.600,7.710,7.980,8.360,8.740,8.950,9.090,9.190,9.420,9.540,9.820,9.980,10.290,10.680,10.840,11.070,11.640,11.905" 
258-121528-0031 ",IT,CAME,QUITE,CLOSE,UP,TO,THEM,AND,FLEW,AWAY,ON,THEIR,RIGHT,HANDS,IN,FRONT,OF,THE,HORSES,,WHEN,THEY,SAW,IT,THEY,WERE,GLAD,,AND,THEIR,HEARTS,TOOK,COMFORT,WITHIN,THEM," "0.330,0.540,0.870,1.200,1.560,1.700,1.820,2.020,2.160,2.390,2.670,2.790,2.920,3.120,3.550,3.700,3.940,4.040,4.120,4.760,5.430,5.610,5.760,6.080,6.410,6.540,6.690,7.230,7.610,7.760,7.890,8.280,8.460,8.990,9.330,9.610,9.795" 
258-121528-0032 ",HAS,HEAVEN,SENT,THIS,OMEN,FOR,US,OR,FOR,YOU," "0.200,0.380,0.730,0.990,1.210,1.480,1.680,2.080,2.350,2.530,2.920,3.375" 
258-121528-0033 ",BUT,HELEN,WAS,TOO,QUICK,FOR,HIM,AND,SAID,,I,WILL,READ,THIS,MATTER,AS,HEAVEN,HAS,PUT,IT,IN,MY,HEART,,AND,AS,I,DOUBT,NOT,THAT,IT,WILL,COME,TO,PASS,,THE,EAGLE,CAME,FROM,THE,MOUNTAIN,,WHERE,IT,WAS,BRED,AND,HAS,ITS,NEST," "0.340,0.500,0.830,1.010,1.200,1.500,1.640,1.850,1.990,2.340,2.970,3.180,3.340,3.510,3.710,4.050,4.170,4.500,4.740,4.970,5.110,5.240,5.380,5.860,6.270,6.450,6.660,6.770,7.070,7.430,7.590,7.680,7.830,8.100,8.210,8.900,9.750,9.930,10.300,10.630,10.800,10.890,11.490,11.540,11.720,11.890,12.040,12.320,12.450,12.700,12.920,13.390,13.68" 
258-121528-0034 ",WILL,RETURN,TO,TAKE,HIS,REVENGE,,IF,INDEED,HE,IS,NOT,BACK,ALREADY,AND,HATCHING,MISCHIEF,FOR,THE,SUITORS,,MAY,JOVE,SO,GRANT,IT,REPLIED,TELEMACHUS,,IF,IT,SHOULD,,PROVE,TO,BE,SO," "0.340,0.490,0.880,1.000,1.280,1.430,2.020,2.530,2.700,3.110,3.320,3.470,3.800,4.080,4.510,4.650,5.060,5.460,5.660,5.770,6.440,7.960,8.180,8.770,8.960,9.380,9.610,9.960,10.740,11.360,11.560,11.700,11.890,12.030,12.370,12.510,12.720,13.220,13.275" 
258-121528-0035 ",I,WILL,MAKE,VOWS,TO,YOU,AS,THOUGH,YOU,WERE,A,GOD,,EVEN,WHEN,I,AM,AT,HOME,,AS,HE,SPOKE,,HE,LASHED,HIS,HORSES,AND,THEY,STARTED,OFF,AT,FULL,SPEED,THROUGH,THE,TOWN,TOWARDS,THE,OPEN,COUNTRY,,THEY,SWAYED,THE,YOKE,UPON,THEIR,NECKS," "0.030,0.270,0.410,0.630,1.090,1.230,1.460,1.720,1.970,2.120,2.310,2.360,2.820,3.170,3.460,3.600,3.750,3.920,4.080,4.510,6.060,6.350,6.490,7.030,7.470,7.640,8.030,8.200,8.750,8.940,9.040,9.390,9.630,9.760,10.020,10.450,10.570,10.710,11.090,11.430,11.580,11.900,12.520,13.260,13.630,14.040,14.150,14.420,14.800,15.010,15.520,15.67" 
258-121528-0036 ",AND,TRAVELLED,THE,WHOLE,DAY,LONG,TILL,THE,SUN,SET,,AND,DARKNESS,WAS,OVER,ALL,THE,LAND," "0.200,0.360,0.710,0.820,1.120,1.290,1.680,1.830,1.950,2.320,2.730,2.880,3.040,3.480,3.710,4.060,4.210,4.320,4.890,5.225" 
258-121528-0037 ",WHERE,DIOCLES,LIVED,WHO,WAS,SON,OF,ORTILOCHUS,,THE,SON,OF,ALPHEUS,,THERE,THEY,PASSED,THE,NIGHT,AND,WERE,TREATED,HOSPITABLY,,WHEN,THE,CHILD,OF,MORNING,,ROSY,FINGERED,DAWN,APPEARED,,THEY,AGAIN,YOKED,THEIR,HORSES,AND,,THEIR,PLACES,IN,THE,CHARIOT," "0.120,0.290,0.900,1.170,1.280,1.560,1.820,1.990,2.750,2.890,3.040,3.240,3.370,4.070,4.850,5.160,5.290,5.640,5.740,6.150,6.360,6.470,6.800,7.620,8.570,8.740,8.840,9.210,9.330,10.000,10.030,10.390,10.750,11.100,11.650,12.130,12.330,12.650,13.010,13.170,13.720,14.010,14.050,14.270,14.750,14.850,14.960,15.600,15.87" 
258-121528-0038 ",THEY,DROVE,OUT,THROUGH,THE,INNER,GATEWAY,AND,UNDER,THE,ECHOING,GATEHOUSE,OF,THE,OUTER,COURT," "0.330,0.560,1.060,1.390,1.680,1.830,2.030,2.430,2.580,2.790,2.960,3.420,3.900,3.980,4.120,4.330,4.800,5.105" 
258-121528-0039 ",I,HOPE,YOU,WILL,PROMISE,TO,DO,WHAT,I,AM,GOING,TO,ASK,YOU,,YOU,KNOW,OUR,FATHERS,WERE,OLD,FRIENDS,BEFORE,US,,MOREOVER,WE,ARE,BOTH,OF,AN,AGE,,AND,THIS,JOURNEY,HAS,BROUGHT,US,TOGETHER,STILL,MORE,CLOSELY," "0.160,0.280,0.590,0.690,0.840,1.290,1.410,1.640,1.810,1.880,2.010,2.210,2.290,2.750,3.030,3.780,3.930,4.200,4.410,4.960,5.130,5.650,6.070,6.500,7.010,7.490,8.070,8.250,8.330,8.630,8.730,8.860,9.410,9.740,9.990,10.210,10.550,10.760,10.970,11.100,11.560,11.850,12.080,12.730,13.145" 
258-121528-0040 ",DO,NOT,THEREFORE,TAKE,ME,PAST,MY,SHIP,,BUT,LEAVE,ME,THERE,,FOR,IF,I,GO,TO,YOUR,FATHER'S,HOUSE,,HE,WILL,TRY,TO,KEEP,ME,IN,THE,WARMTH,OF,HIS,GOOD,WILL,TOWARDS,ME,,AND,I,MUST,GO,HOME,AT,ONCE," "0.460,0.630,0.910,1.360,1.660,1.770,2.240,2.400,2.780,3.210,3.430,3.650,3.810,4.300,4.680,4.860,5.050,5.180,5.390,5.530,5.680,6.110,6.640,6.800,6.920,7.030,7.240,7.340,7.640,7.860,7.970,8.080,8.410,8.500,8.680,8.900,9.150,9.630,9.890,10.240,10.430,10.540,10.850,11.060,11.300,11.410,12.100,12.545" 
258-121528-0041 ",AND,IN,THE,END,HE,DEEMED,IT,BEST,TO,TURN,HIS,HORSES,TOWARDS,THE,SHIP," "0.170,0.330,0.430,0.570,0.800,0.950,1.210,1.350,1.620,1.720,1.940,2.100,2.520,2.930,3.060,3.470,3.715" 
258-121528-0042 ",THEN,HE,SAID,,GO,ON,BOARD,AT,ONCE,AND,TELL,YOUR,MEN,TO,DO,SO,ALSO,BEFORE,I,CAN,REACH,HOME,TO,TELL,MY,FATHER,,I,KNOW,HOW,OBSTINATE,HE,IS,,AND,AM,SURE,HE,WILL,NOT,LET,YOU,GO," "0.530,0.720,0.860,1.320,1.770,1.890,2.130,2.410,2.600,3.040,3.210,3.440,3.550,3.720,3.870,4.110,4.480,4.890,5.240,5.340,5.550,5.770,6.040,6.150,6.350,6.530,7.040,7.750,7.970,8.220,8.470,9.070,9.290,9.650,9.910,10.140,10.290,10.550,10.710,10.840,11.050,11.250,11.350,11.750,11.985" 
258-121528-0043 ",HE,WILL,COME,DOWN,HERE,TO,FETCH,YOU,,AND,HE,WILL,NOT,GO,BACK,WITHOUT,YOU,,BUT,HE,WILL,BE,VERY,ANGRY,,WITH,THIS,,HE,DROVE,HIS,GOODLY,STEEDS,BACK,TO,THE,CITY,OF,THE,PYLIANS,,AND,SOON,REACHED,HIS,HOME," "0.330,0.470,0.610,0.900,1.190,1.400,1.520,1.860,2.120,2.210,2.370,2.500,2.630,2.880,3.000,3.270,3.600,3.860,4.280,4.430,4.560,4.650,4.780,5.120,5.620,7.130,7.370,7.730,7.870,8.060,8.370,8.580,8.940,9.290,9.510,9.650,9.750,10.050,10.140,10.220,10.880,11.210,11.480,11.840,12.130,12.290,12.700,12.98" 
258-121528-0044 ",BUT,TELEMACHUS,CALLED,THE,MEN,TOGETHER,AND,GAVE,HIS,ORDERS,,NOW,MY,MEN,,SAID,HE,,GET,EVERYTHING,IN,ORDER,ON,BOARD,THE,SHIP,,AND,LET,US,SET,OUT,HOME,,THUS,DID,HE,SPEAK,,AND,THEY,WENT,ON,BOARD,EVEN,AS,HE,HAD,SAID," "0.310,0.480,1.050,1.360,1.430,1.690,2.110,2.240,2.460,2.630,3.190,3.810,4.140,4.300,4.670,4.700,4.940,5.260,5.520,5.710,6.120,6.210,6.570,6.730,7.010,7.130,7.540,7.850,7.990,8.130,8.260,8.450,8.610,9.150,10.570,11.030,11.180,11.350,11.910,12.330,12.530,12.630,12.940,13.070,13.370,13.670,13.860,14.020,14.220,14.670,15.04" 
258-121528-0045 ",BUT,AS,TELEMACHUS,WAS,THUS,BUSIED,,PRAYING,ALSO,AND,SACRIFICING,TO,,MINERVA,IN,THE,SHIP'S,STERN,,THERE,CAME,TO,HIM,A,MAN,FROM,A,DISTANT,COUNTRY,,A,SEER,,WHO,WAS,FLYING,FROM,ARGOS,,BECAUSE,HE,HAD,KILLED,A,MAN,,HE,WAS,DESCENDED,FROM,MELAMPUS," "0.420,0.590,0.790,1.400,1.560,1.820,2.360,2.500,2.840,3.260,3.390,4.070,4.160,4.190,4.670,4.760,4.870,5.200,5.720,6.340,6.540,6.800,6.880,7.100,7.180,7.460,7.620,7.700,8.110,8.690,8.960,9.100,9.660,10.070,10.150,10.310,10.720,10.920,11.560,11.840,12.250,12.350,12.510,12.800,12.850,13.270,14.440,14.580,14.740,15.290,15.470,16.230,16.35" 