77-121518-0000 ",AND,NOW,,AS,DAWN,ROSE,FROM,HER,COUCH,BESIDE,TITHONUS,,HARBINGER,OF,,LIGHT,ALIKE,,TO,MORTALS,,AND,IMMORTALS,,THE,GODS,MET,IN,COUNCIL,AND,WITH,,THEM,,JOVE,THE,LORD,OF,,THUNDER,,WHO,IS,,THEIR,KING," "0.080,0.500,1.180,1.700,1.900,2.270,2.730,2.920,3.040,3.530,4.050,4.850,5.310,5.900,6.010,6.040,6.310,6.900,7.040,7.170,7.780,7.810,8.090,8.770,9.400,9.520,9.900,10.140,10.280,10.960,11.120,11.250,11.310,11.630,12.050,12.460,12.550,12.970,13.080,13.130,13.680,13.940,14.150,14.300,14.330,14.550,15.080,15.42" 
77-121518-0001 ",THEREON,MINERVA,,BEGAN,TO,TELL,THEM,OF,THE,MANY,SUFFERINGS,OF,ULYSSES,,FOR,SHE,PITIED,HIM,AWAY,THERE,IN,THE,HOUSE,,OF,THE,NYMPH,,CALYPSO,,FATHER,JOVE,,SAID,SHE," "0.540,1.100,1.760,2.070,2.540,2.680,3.030,3.240,3.350,3.430,3.760,4.580,4.700,5.420,6.070,6.240,6.400,6.790,6.970,7.290,7.600,7.730,7.840,8.250,8.530,8.720,8.810,9.310,9.690,10.470,11.910,12.210,12.730,12.960,13.280,13.720,13.925" 
77-121518-0002 ",AND,ALL,YOU,OTHER,GODS,,THAT,LIVE,IN,EVERLASTING,BLISS,,I,HOPE,THERE,MAY,NEVER,BE,,SUCH,A,,THING,AS,A,KIND,AND,WELL,DISPOSED,RULER,ANY,MORE,,NOR,ONE,WHO,WILL,GOVERN,,EQUITABLY,,I,HOPE," "0.220,0.490,0.660,0.800,0.970,1.540,1.570,1.780,1.980,2.130,2.950,3.310,4.010,4.160,4.440,4.580,4.730,4.990,5.440,5.480,5.750,5.810,5.890,6.110,6.210,6.310,6.800,6.950,7.170,7.850,8.250,8.460,8.870,9.960,10.170,10.430,10.580,10.780,11.390,11.910,12.710,13.640,13.840,14.410,14.53" 
77-121518-0003 ",FOR,THERE,IS,NOT,ONE,OF,HIS,,SUBJECTS,,BUT,HAS,FORGOTTEN,ULYSSES,,WHO,RULED,THEM,AS,THOUGH,,HE,WERE,THEIR,FATHER,,THERE,HE,IS,LYING,IN,GREAT,PAIN,,IN,AN,ISLAND,WHERE,DWELLS,,THE,NYMPH,,CALYPSO," "0.260,0.420,0.570,0.730,1.020,1.240,1.330,1.570,1.600,2.190,2.680,2.830,3.060,3.570,4.210,4.980,5.170,5.500,5.680,5.820,6.300,6.470,6.650,6.900,7.140,7.700,8.770,9.010,9.130,9.450,9.910,10.050,10.420,10.970,11.730,11.840,11.980,12.580,12.730,13.320,13.400,13.500,13.970,14.330,15.230,15.565" 
77-121518-0004 ",WHO,WILL,NOT,LET,HIM,GO,,AND,HE,CANNOT,GET,BACK,TO,HIS,OWN,COUNTRY,,FOR,HE,CAN,FIND,NEITHER,SHIPS,,NOR,SAILORS,TO,TAKE,HIM,OVER,THE,SEA,,FURTHERMORE," "0.400,0.500,0.640,0.890,1.040,1.190,1.530,2.120,2.220,2.290,2.670,2.850,3.190,3.300,3.460,3.790,4.390,5.010,5.230,5.340,5.550,5.980,6.290,6.840,7.030,7.260,7.830,7.950,8.270,8.390,8.570,8.730,9.190,10.000,10.670,10.97" 
77-121518-0005 ",WICKED,PEOPLE,ARE,NOW,TRYING,TO,MURDER,HIS,,ONLY,SON,,TELEMACHUS,,WHO,IS,COMING,HOME,FROM,PYLOS,,AND,LACEDAEMON," "0.390,0.790,1.180,1.250,1.510,1.980,2.090,2.550,2.790,2.820,3.240,3.780,3.810,4.570,5.210,5.370,5.490,5.750,6.250,6.450,7.110,7.340,7.570,8.430,8.505" 
77-121518-0006 ",OF,HIS,,FATHER,,WHAT,MY,DEAR,,ARE,YOU,TALKING,ABOUT,REPLIED,HER,FATHER,,DID,YOU,NOT,SEND,HIM,THERE,YOURSELF,,BECAUSE,YOU,THOUGHT,IT,WOULD,HELP,,ULYSSES,,TO,GET,HOME,AND,PUNISH,,THE,SUITORS," "0.130,0.270,0.490,0.520,1.070,2.340,2.830,2.970,3.410,3.620,3.820,3.940,4.420,4.890,5.350,5.490,6.020,6.650,6.830,6.950,7.260,7.560,7.750,7.990,8.690,9.180,9.430,9.540,9.860,10.000,10.130,10.480,10.510,11.320,11.350,11.450,11.620,12.050,12.200,12.690,12.720,12.860,13.470,13.885" 
77-121518-0007 ",BESIDES,YOU,ARE,PERFECTLY,,ABLE,,TO,PROTECT,TELEMACHUS,,AND,TO,SEE,HIM,SAFELY,HOME,AGAIN,,WHILE,THE,SUITORS,HAVE,TO,COME,HURRY,,SKURRYING,BACK,WITHOUT,HAVING,KILLED,HIM," "0.450,1.150,1.270,1.400,1.990,2.020,2.470,2.500,2.630,3.230,4.020,4.530,4.780,4.890,5.050,5.250,5.680,5.920,6.430,7.360,7.840,7.970,8.510,8.740,8.850,9.100,9.680,9.750,10.470,10.840,11.210,11.520,11.860,12.330,12.775" 
77-121518-0008 ",WHEN,HE,HAD,THUS,SPOKEN,,HE,SAID,TO,HIS,SON,MERCURY,,MERCURY,,YOU,ARE,,OUR,MESSENGER,,GO,THEREFORE,AND,TELL,CALYPSO,WE,HAVE,DECREED,,THAT,POOR,ULYSSES,,IS,TO,RETURN,HOME," "0.520,0.700,0.780,0.970,1.230,1.990,2.020,2.220,2.520,2.630,2.790,3.090,3.870,4.880,5.510,5.540,5.740,6.120,6.150,6.390,7.150,7.520,7.790,8.410,8.560,8.770,9.460,9.580,9.740,10.560,10.730,11.010,11.270,12.030,12.160,12.340,12.450,12.920,13.400,13.685" 
77-121518-0009 ",HE,IS,TO,BE,CONVOYED,NEITHER,BY,GODS,NOR,MEN,,BUT,AFTER,A,PERILOUS,VOYAGE,OF,TWENTY,DAYS,UPON,A,RAFT," "0.170,0.500,0.640,0.750,0.970,1.730,2.020,2.210,2.730,2.950,3.390,3.960,4.130,4.620,4.830,5.390,6.010,6.150,6.550,7.000,7.340,7.420,7.990,8.085" 
77-121518-0010 ",WHO,ARE,NEAR,OF,KIN,TO,THE,GODS,,AND,WILL,HONOUR,HIM,,AS,,THOUGH,HE,WERE,ONE,OF,OURSELVES,,THEY,WILL,SEND,HIM,IN,A,SHIP,,TO,HIS,OWN,COUNTRY,,AND,WILL,GIVE,HIM,MORE,BRONZE,AND,GOLD,AND,RAIMENT,,THAN,HE,WOULD,HAVE,BROUGHT,BACK,FROM,TROY," "0.190,0.300,0.450,0.670,0.850,1.240,1.350,1.450,2.130,2.200,2.360,2.540,2.900,3.450,3.480,3.650,3.700,3.900,4.020,4.160,4.390,4.520,5.400,6.320,6.470,6.620,6.990,7.160,7.250,7.340,7.800,7.950,8.080,8.240,8.550,9.270,9.340,9.460,9.600,9.820,9.950,10.160,10.710,10.870,11.270,11.440,11.920,12.500,12.670,12.780,13.030,13.170,13.460,13.750,13.970,14.560,14.575" 
77-121518-0011 ",ALL,HIS,PRIZE,MONEY,AND,HAD,GOT,HOME,WITHOUT,DISASTER,,THIS,IS,HOW,WE,HAVE,,SETTLED,THAT,HE,SHALL,RETURN,TO,HIS,COUNTRY,,AND,HIS,FRIENDS,,THUS,,HE,SPOKE,,AND,MERCURY,,GUIDE,AND,GUARDIAN,,SLAYER,OF,ARGUS," "0.140,0.570,0.760,1.180,1.670,1.810,1.990,2.200,2.620,3.030,3.790,4.400,4.600,4.720,4.940,5.080,5.320,5.350,5.780,5.930,6.180,6.600,7.080,7.190,7.340,8.180,8.210,8.480,8.650,9.260,10.170,10.600,10.640,10.830,11.380,11.800,12.010,12.750,13.080,13.550,13.660,14.360,14.450,14.960,15.170,15.700,15.94" 
77-121518-0012 ",DID,AS,HE,WAS,TOLD,,FORTHWITH,,HE,BOUND,ON,HIS,GLITTERING,GOLDEN,SANDALS,WITH,WHICH,HE,COULD,FLY,LIKE,THE,WIND,,OVER,LAND,AND,SEA,,HE,TOOK,THE,WAND,WITH,WHICH,HE,SEALS,MEN'S,EYES,IN,SLEEP," "0.260,0.540,0.600,0.750,0.970,1.540,2.200,2.860,3.180,3.370,3.930,4.080,4.250,4.820,5.290,6.050,6.240,6.470,6.590,6.780,7.280,7.480,7.580,8.170,8.580,8.890,9.290,9.480,9.960,10.540,10.700,10.950,11.040,11.600,11.780,11.980,12.130,12.630,13.000,13.470,13.670,14.160,14.225" 
77-121518-0013 ",OR,WAKES,THEM,JUST,,AS,HE,PLEASES," "0.090,0.410,0.790,1.020,1.420,1.480,1.750,1.890,2.570,2.765" 
77-121518-0014 ",WHOSE,WAVES,HE,SKIMMED,,LIKE,A,CORMORANT,,THAT,FLIES,FISHING,EVERY,HOLE,AND,CORNER,OF,THE,OCEAN,,AND,DRENCHING,ITS,THICK,PLUMAGE,,IN,THE,SPRAY,,HE,FLEW,AND,FLEW,OVER,MANY,A,WEARY,WAVE,,BUT,WHEN,AT,LAST," "0.280,0.530,0.960,1.110,1.660,1.690,1.940,2.010,2.740,2.930,3.110,3.490,3.910,4.110,4.600,4.740,5.070,5.180,5.330,5.900,6.130,6.430,6.910,7.100,7.350,8.040,8.130,8.320,8.420,8.980,9.380,9.540,9.900,10.050,10.410,10.610,10.970,11.060,11.430,12.020,12.390,12.550,12.940,13.140,13.630,13.735" 
77-121518-0015 ",HE,GOT,TO,THE,ISLAND,WHICH,WAS,HIS,JOURNEY'S,END,,HE,LEFT,,THE,SEA,,AND,WENT,ON,BY,LAND,,TILL,HE,CAME,TO,THE,CAVE,WHERE,THE,NYMPH,,CALYPSO,LIVED,,HE,FOUND,HER,,AT,HOME,,THERE,WAS,A,LARGE,FIRE,BURNING,ON,THE,HEARTH," "0.150,0.280,0.510,0.600,0.770,1.420,1.600,1.780,2.000,2.570,3.050,3.310,3.460,3.920,3.970,4.120,4.630,4.940,5.130,5.330,5.580,5.740,6.300,6.470,6.620,6.740,7.110,7.200,7.310,7.930,8.120,8.240,8.770,9.020,9.770,10.510,11.260,11.430,11.840,12.170,12.200,12.390,12.850,13.610,13.750,13.880,13.940,14.310,14.630,15.020,15.150,15.240,15.680,15.77" 
77-121518-0016 ",AND,ONE,COULD,SMELL,FROM,FAR,THE,FRAGRANT,REEK,OF,BURNING,CEDAR,AND,SANDAL,WOOD,,AS,FOR,HERSELF,,SHE,WAS,BUSY,AT,HER,LOOM,,SHOOTING,HER,GOLDEN,SHUTTLE,THROUGH,THE,WARP,,AND,SINGING,BEAUTIFULLY,,ROUND,HER,CAVE,THERE,WAS,A,,THICK,WOOD,OF,ALDER," "0.140,0.300,0.520,0.700,1.110,1.400,1.770,1.900,2.470,2.780,2.900,3.270,3.800,4.000,4.470,4.780,5.400,5.680,5.830,6.590,7.000,7.160,7.350,7.750,7.850,7.980,8.500,8.970,9.420,9.540,10.040,10.450,10.660,10.770,11.240,11.390,11.610,12.050,12.710,13.110,13.480,13.610,14.020,14.140,14.320,14.420,14.490,14.740,15.030,15.170,15.790,15.89" 
77-121518-0017 ",POPLAR,,AND,SWEET,SMELLING,CYPRESS,TREES,,WHEREIN,ALL,KINDS,OF,GREAT,BIRDS,HAD,BUILT,THEIR,NESTS,,OWLS,HAWKS,AND,CHATTERING,SEA,CROWS,,THAT,OCCUPY,THEIR,BUSINESS,,IN,THE,WATERS," "0.150,0.700,1.050,1.320,1.580,1.930,2.450,3.140,3.170,3.550,3.750,4.360,4.470,4.820,5.270,5.440,5.700,5.870,6.190,6.760,7.260,7.740,7.930,8.400,8.640,9.220,9.480,9.640,10.160,10.330,10.870,10.900,11.020,11.090,11.670,11.875" 
77-121518-0018 ",A,VINE,LOADED,WITH,GRAPES,,WAS,TRAINED,AND,GREW,LUXURIANTLY,,ABOUT,THE,MOUTH,OF,THE,CAVE," "0.240,0.370,0.770,1.170,1.360,1.860,1.920,2.260,2.790,2.900,3.170,4.300,4.760,5.070,5.160,5.550,5.640,5.730,6.180,6.4" 
77-121518-0019 ",AND,TURNED,HITHER,AND,THITHER," "0.270,0.500,0.810,1.110,1.420,1.860,1.975" 
77-121518-0020 ",SO,MERCURY,STOOD,STILL,,AND,LOOKED,AT,IT,,BUT,WHEN,HE,HAD,ADMIRED,IT,SUFFICIENTLY,HE,WENT,,INSIDE,THE,CAVE,,CALYPSO,KNEW,HIM,AT,ONCE,,FOR,THE,GODS,ALL,KNOW,EACH,OTHER,,NO,MATTER,HOW,FAR,THEY,LIVE,FROM,ONE,ANOTHER," "0.360,0.560,1.150,1.470,1.960,2.040,2.310,2.740,2.960,3.270,3.580,3.750,3.920,4.050,4.240,4.790,4.930,5.660,5.790,6.150,6.180,6.880,6.980,7.540,8.240,8.850,9.070,9.250,9.370,10.030,10.180,10.280,10.380,10.800,10.970,11.180,11.370,11.740,11.780,11.870,12.140,12.330,12.670,12.820,13.150,13.360,13.540,13.990,14.295" 
77-121518-0021 ",BUT,ULYSSES,WAS,NOT,WITHIN,,HE,WAS,ON,THE,SEA,SHORE,AS,USUAL,,LOOKING,,OUT,UPON,THE,BARREN,OCEAN,,WITH,TEARS,IN,HIS,EYES,,GROANING,AND,BREAKING,HIS,HEART,FOR,SORROW,,CALYPSO,GAVE,MERCURY,A,SEAT,,AND,SAID," "0.350,0.570,1.150,1.310,1.680,2.270,2.580,2.700,2.890,3.090,3.190,3.440,3.790,3.950,4.550,4.940,5.310,5.340,5.660,5.910,5.980,6.410,7.070,7.220,7.480,7.890,8.000,8.190,8.740,9.020,9.630,9.790,10.200,10.400,10.740,10.900,11.440,11.900,12.410,12.650,13.150,13.240,13.670,13.710,13.910,14.380,14.575" 
77-121518-0022 ",WHY,HAVE,YOU,COME,TO,SEE,ME,MERCURY,,HONOURED,,AND,EVER,WELCOME,FOR,YOU,DO,NOT,VISIT,ME,OFTEN,,SAY,WHAT,YOU,WANT,I,WILL,DO,IT,FOR,YOU,AT,,ONCE,,IF,I,CAN,,AND,IF,IT,CAN,BE,DONE,AT,ALL,,BUT,COME,INSIDE," "0.260,0.470,0.610,0.750,1.040,1.150,1.390,1.540,2.320,2.580,3.130,3.410,3.600,3.880,4.600,4.740,4.900,5.030,5.310,5.670,5.870,6.430,7.040,7.250,7.410,7.550,8.040,8.120,8.310,8.570,8.720,9.020,9.250,9.450,9.520,10.170,10.220,10.400,10.520,11.140,11.560,11.740,11.850,11.930,12.060,12.170,12.420,12.540,13.010,13.760,14.060,14.270,14.870,14.965" 
77-121518-0023 ",AND,LET,ME,SET,REFRESHMENT,BEFORE,YOU,,AS,SHE,SPOKE,SHE,DREW,A,TABLE,LOADED,WITH,AMBROSIA,BESIDE,HIM,,AND,MIXED,HIM,SOME,RED,NECTAR,,SO,MERCURY,ATE,,AND,DRANK,TILL,HE,HAD,HAD,ENOUGH," "0.130,0.290,0.410,0.540,0.760,1.400,1.790,2.030,2.520,2.840,3.020,3.460,3.650,3.860,3.940,4.310,4.720,4.910,5.670,6.190,6.480,6.700,6.990,7.260,7.430,7.650,7.870,8.450,8.750,8.930,9.430,9.800,9.910,10.100,10.630,10.760,10.880,11.100,11.430,11.890,11.91" 
77-121518-0024 ",AND,THEN,SAID,,WE,ARE,SPEAKING,GOD,AND,GODDESS,TO,ONE,ANOTHER,,AND,YOU,ASK,ME,WHY,I,HAVE,COME,HERE,,AND,I,WILL,TELL,YOU,TRULY,,AS,YOU,WOULD,HAVE,ME,DO,,JOVE,SENT,ME,,IT,WAS,NO,DOING,OF,MINE," "0.160,0.420,0.720,1.310,1.600,1.740,1.910,2.390,2.760,2.890,3.420,3.560,3.750,4.290,4.590,4.830,4.930,5.270,5.410,5.830,5.910,6.100,6.340,6.710,6.790,6.950,7.040,7.190,7.410,7.560,8.240,8.360,8.620,8.830,9.000,9.340,9.510,9.980,10.610,11.110,11.400,11.750,11.780,11.870,12.020,12.200,12.550,12.660,13.200,13.335" 
77-121518-0025 ",WHO,COULD,POSSIBLY,WANT,TO,COME,ALL,THIS,WAY,OVER,THE,SEA,,WHERE,THERE,ARE,NO,CITIES,FULL,OF,PEOPLE,TO,OFFER,ME,SACRIFICES,,OR,CHOICE,HECATOMBS," "0.230,0.370,0.540,0.990,1.250,1.320,1.540,1.750,1.950,2.310,2.460,2.620,3.070,3.300,3.590,3.730,3.780,3.950,4.440,4.600,4.740,5.180,5.350,5.760,5.950,6.990,7.040,7.300,7.760,8.590,8.705" 
77-121518-0026 ",HIS,ORDERS,,HE,SAYS,THAT,YOU,HAVE,HERE,,THE,MOST,ILL,STARRED,OF,ALL,THOSE,WHO,FOUGHT,NINE,YEARS,BEFORE,THE,CITY,OF,KING,PRIAM,,AND,SAILED,HOME,IN,THE,TENTH,YEAR,,AFTER,HAVING,SACKED,IT," "0.100,0.340,0.910,1.070,1.280,1.720,1.930,2.030,2.290,2.640,2.960,3.100,3.400,3.640,4.170,4.290,4.560,5.000,5.090,5.380,5.630,6.040,6.550,6.710,7.000,7.120,7.430,8.060,8.390,8.580,8.900,9.220,9.310,9.430,9.790,10.110,10.140,10.420,10.750,11.180,11.360,11.62" 
77-121518-0027 ",SO,THAT,ALL,HIS,BRAVE,COMPANIONS,PERISHED,AND,HE,ALONE,WAS,CARRIED,HITHER,BY,WIND,AND,TIDE,,JOVE,SAYS,,THAT,YOU,ARE,TO,LET,THIS,,MAN,GO,AT,ONCE,,FOR,IT,IS,DECREED,THAT,HE,SHALL,NOT,PERISH,HERE,,FAR,FROM,HIS,OWN,PEOPLE," "0.210,0.390,0.610,0.850,1.020,1.340,2.060,2.690,2.850,3.000,3.730,3.940,4.320,4.590,4.800,5.230,5.390,5.940,6.770,7.120,7.520,7.550,7.750,7.960,8.200,8.340,8.590,8.750,8.780,9.090,9.390,9.530,10.070,10.460,10.640,10.850,11.230,11.880,12.040,12.150,12.350,12.640,13.060,13.390,13.790,14.070,14.270,14.450,14.690,15.180,15.25" 
77-121518-0028 ",BUT,SHALL,RETURN,TO,HIS,HOUSE,AND,COUNTRY,AND,SEE,HIS,FRIENDS,AGAIN,,CALYPSO,TREMBLED,WITH,RAGE,WHEN,SHE,HEARD,THIS,,YOU,GODS,SHE,EXCLAIMED,,OUGHT,TO,BE,ASHAMED,OF,YOURSELVES," "0.180,0.330,0.590,1.210,1.320,1.480,1.900,2.060,2.590,2.760,2.870,3.050,3.470,3.920,4.170,4.770,5.320,5.470,5.960,6.140,6.290,6.540,6.890,7.220,7.390,7.870,8.040,8.930,9.110,9.370,9.470,9.640,10.250,10.330,11.210,11.46" 
77-121518-0029 ",YOU,ARE,ALWAYS,JEALOUS,AND,HATE,SEEING,A,GODDESS,TAKE,A,FANCY,TO,A,MORTAL,MAN,AND,LIVE,WITH,HIM,IN,OPEN,MATRIMONY,,SO,WHEN,ROSY,FINGERED,DAWN,MADE,LOVE,TO,ORION," "0.280,0.440,0.500,0.830,1.400,1.540,1.780,2.010,2.080,2.600,2.790,2.850,3.480,3.650,3.700,4.100,4.610,4.730,4.950,5.140,5.360,5.530,5.960,6.850,7.820,7.980,8.170,8.550,9.080,9.540,9.760,10.020,10.190,10.860,11.005" 
77-121518-0030 ",SO,AGAIN,,WHEN,CERES,,FELL,IN,LOVE,WITH,IASION,,AND,YIELDED,TO,HIM,IN,A,THRICE,PLOUGHED,FALLOW,FIELD," "0.470,0.710,1.220,1.250,1.420,1.880,1.910,2.120,2.290,2.570,2.750,3.350,3.780,4.040,4.410,4.520,4.880,4.970,5.040,5.510,6.000,6.440,7.080,7.32" 
77-121518-0031 ",AND,NOW,YOU,ARE,ANGRY,WITH,ME,TOO,,BECAUSE,I,HAVE,A,MAN,HERE,,I,FOUND,THE,POOR,CREATURE,SITTING,ALL,ALONE,ASTRIDE,OF,A,KEEL,,FOR,JOVE,HAD,STRUCK,HIS,SHIP,,WITH,LIGHTNING,AND,SUNK,IT,IN,MID,OCEAN," "0.270,0.480,0.700,0.840,0.980,1.450,1.650,1.860,2.370,2.580,2.980,3.190,3.360,3.430,3.880,4.310,4.930,5.100,5.480,5.540,5.830,6.370,6.720,6.920,7.390,7.950,8.040,8.120,8.670,9.410,9.650,10.180,10.420,10.770,10.930,11.490,11.530,11.670,12.360,12.530,12.860,13.010,13.190,13.360,14.010,14.13" 
77-121518-0032 ",SO,THAT,ALL,HIS,CREW,,WERE,DROWNED,,WHILE,HE,HIMSELF,,WAS,DRIVEN,BY,WIND,AND,WAVES,ON,TO,MY,ISLAND,,I,GOT,FOND,OF,HIM,,AND,CHERISHED,HIM,AND,HAD,SET,MY,HEART,,ON,MAKING,HIM,IMMORTAL,,SO,THAT,HE,SHOULD,NEVER,GROW,OLD,ALL,HIS,DAYS," "0.210,0.400,0.590,0.830,1.020,1.420,1.450,1.580,2.340,2.810,3.080,3.270,4.020,4.090,4.350,4.730,4.910,5.390,5.540,6.190,6.470,6.540,6.740,7.330,7.670,7.870,8.110,8.410,8.540,8.810,8.940,9.140,9.630,9.850,9.980,10.140,10.370,10.450,10.910,10.990,11.180,11.530,11.650,12.250,12.650,12.800,12.950,13.070,13.270,13.490,13.770,14.240,14.460,14.640,15.130,15.4" 
77-121518-0033 ",STILL,I,CANNOT,CROSS,JOVE,,NOR,BRING,HIS,COUNSELS,TO,NOTHING,,THEREFORE,IF,HE,INSISTS,UPON,IT,,LET,THE,MAN,GO,BEYOND,THE,SEAS,AGAIN,,BUT,I,CANNOT,SEND,HIM,ANYWHERE,MYSELF,,FOR,I,HAVE,NEITHER,SHIPS,,NOR,MEN,WHO,CAN,TAKE,HIM," "0.230,0.510,0.600,0.960,1.350,1.920,2.300,2.450,2.640,2.810,3.370,3.470,4.010,4.500,5.030,5.190,5.340,5.940,6.290,6.510,6.900,7.030,7.110,7.470,7.600,8.000,8.080,8.510,9.080,9.660,9.790,9.910,10.320,10.580,10.710,11.110,11.880,11.950,12.100,12.180,12.440,12.780,13.260,13.390,13.600,13.950,14.120,14.320,14.550,14.910,15.015" 
77-121518-0034 ",NEVERTHELESS,,I,WILL,READILY,GIVE,HIM,SUCH,ADVICE,,IN,ALL,GOOD,FAITH,,AS,WILL,BE,LIKELY,TO,BRING,HIM,SAFELY,TO,HIS,OWN,COUNTRY,,THEN,SEND,HIM,AWAY,SAID,MERCURY,,OR,JOVE,WILL,BE,ANGRY,WITH,YOU,,AND,PUNISH,YOU,,ON,THIS,HE,TOOK,HIS,LEAVE," "0.230,1.080,1.370,1.530,1.710,2.100,2.330,2.530,2.830,3.440,3.470,3.690,4.020,4.240,4.630,4.900,5.100,5.210,5.330,5.890,6.020,6.210,6.380,6.930,7.050,7.200,7.420,8.040,8.440,8.700,8.980,9.080,9.550,9.820,10.510,10.760,10.930,11.290,11.420,11.630,12.050,12.220,12.550,12.770,13.020,13.450,13.720,14.030,14.340,14.660,14.820,15.010,15.170,15.620,15.855" 
77-121518-0035 ",AND,CALYPSO,WENT,OUT,,TO,LOOK,FOR,ULYSSES,FOR,SHE,HAD,HEARD,JOVE'S,MESSAGE,,SHE,FOUND,HIM,SITTING,UPON,THE,BEACH,,WITH,HIS,EYES,EVER,FILLED,WITH,TEARS,AND,DYING,OF,SHEER,HOME,SICKNESS," "0.360,0.500,0.930,1.090,1.320,1.350,1.490,1.730,1.880,2.600,2.780,2.910,3.150,3.480,3.840,4.470,4.780,4.940,5.230,5.350,5.630,5.970,6.040,6.490,6.680,6.800,6.990,7.360,7.540,7.980,8.180,8.740,8.900,9.330,9.460,9.780,10.100,10.620,10.87" 
77-121518-0036 ",THAT,WOULD,HAVE,IT,SO,,AS,FOR,THE,DAY,TIME,,HE,SPENT,IT,ON,THE,ROCKS,AND,ON,THE,SEA,SHORE,,WEEPING,,CRYING,ALOUD,FOR,HIS,DESPAIR,,AND,ALWAYS,LOOKING,,OUT,UPON,THE,SEA," "0.100,0.290,0.460,0.710,0.830,1.270,1.750,1.930,2.020,2.140,2.350,2.830,2.930,3.090,3.400,3.490,3.630,3.710,4.250,4.340,4.490,4.590,4.850,5.340,5.580,6.170,6.610,7.080,7.700,7.850,8.080,8.720,9.090,9.300,9.530,9.870,9.900,10.190,10.510,10.620,11.080,11.255" 
77-121518-0037 ",SO,GO,,CUT,SOME,BEAMS,OF,WOOD,,AND,MAKE,YOURSELF,,A,LARGE,RAFT,,WITH,AN,UPPER,DECK,,THAT,IT,MAY,CARRY,YOU,SAFELY,OVER,THE,,SEA,,I,WILL,PUT,BREAD,,WINE,AND,WATER,ON,BOARD,TO,SAVE,YOU,FROM,STARVING,,I,WILL,ALSO,GIVE,YOU,CLOTHES," "0.320,0.550,1.010,1.650,1.910,2.100,2.460,2.570,3.050,3.270,3.410,3.640,4.210,4.240,4.330,4.770,5.330,5.770,5.920,6.070,6.330,6.840,6.900,7.070,7.170,7.320,7.710,7.820,8.360,8.550,8.790,8.820,9.150,9.930,10.070,10.220,10.460,10.900,10.950,11.360,11.520,11.890,12.120,12.490,12.610,12.930,13.060,13.280,13.980,14.380,14.490,14.630,14.950,15.170,15.290,15.910,16.1" 
77-121518-0038 ",AND,WILL,SEND,YOU,A,FAIR,WIND,,TO,TAKE,YOU,HOME,,IF,THE,GODS,IN,HEAVEN,SO,WILL,IT,,FOR,THEY,KNOW,,MORE,ABOUT,THESE,,THINGS,AND,CAN,SETTLE,THEM,BETTER,THAN,I,CAN,,ULYSSES,SHUDDERED,,AS,HE,HEARD,HER,,NOW,GODDESS,,HE,ANSWERED," "0.150,0.360,0.500,0.780,0.870,0.980,1.290,1.770,1.970,2.160,2.400,2.520,3.010,3.390,3.590,3.670,4.030,4.130,4.620,4.860,5.090,5.210,5.560,5.700,5.850,6.250,6.280,6.550,6.880,7.190,7.220,7.700,7.830,8.010,8.290,8.500,8.890,9.040,9.260,9.780,10.030,10.750,11.370,11.630,11.820,11.950,12.230,12.520,13.150,13.350,13.980,14.010,14.110,14.720,14.88" 
77-121518-0039 ",NOT,EVEN,A,WELL,FOUND,SHIP,,WITH,A,,FAIR,WIND,COULD,VENTURE,ON,SUCH,A,DISTANT,VOYAGE,,NOTHING,THAT,YOU,CAN,SAY,OR,DO,,SHALL,MAKE,ME,GO,ON,BOARD,A,RAFT,UNLESS,YOU,FIRST,SOLEMNLY,SWEAR," "0.390,0.550,0.740,0.790,1.030,1.440,1.910,1.940,2.210,2.310,2.340,2.700,3.250,3.440,3.830,4.030,4.240,4.300,4.740,5.360,6.120,6.820,6.970,7.180,7.400,7.670,7.790,8.220,8.960,9.170,9.430,9.520,9.710,10.110,10.420,10.500,11.050,11.370,11.470,11.790,12.310,12.900,13.01" 
77-121518-0040 ",CALYPSO,SMILED,AT,THIS,,AND,CARESSED,HIM,WITH,HER,HAND,,YOU,KNOW,A,GREAT,DEAL,SAID,SHE,,BUT,YOU,ARE,QUITE,WRONG,HERE,,MAY,HEAVEN,ABOVE,AND,EARTH,BELOW,BE,MY,WITNESSES,,WITH,THE,WATERS,OF,THE,RIVER,STYX," "0.470,0.920,1.370,1.490,1.770,1.800,1.980,2.420,2.570,2.730,2.870,3.370,4.040,4.220,4.380,4.440,4.700,5.110,5.390,5.840,5.880,6.000,6.110,6.260,6.650,6.920,7.370,7.930,8.120,8.380,8.810,8.950,9.230,9.690,9.840,10.010,10.840,10.920,11.030,11.120,11.590,11.720,11.830,12.170,12.810,12.975" 
77-121518-0041 ",THAT,I,MEAN,YOU,,NO,SORT,OF,HARM,,AND,AM,ONLY,ADVISING,YOU,TO,DO,EXACTLY,WHAT,I,SHOULD,DO,MYSELF,IN,YOUR,PLACE,,I,AM,DEALING,WITH,YOU,QUITE,STRAIGHTFORWARDLY," "0.270,0.400,0.490,0.780,1.140,1.480,1.860,2.260,2.370,2.870,3.260,3.560,3.670,3.920,4.520,4.840,4.950,5.110,5.810,5.990,6.130,6.350,6.500,7.280,7.400,7.610,8.150,8.800,8.920,9.090,9.440,9.640,9.820,10.260,11.240,11.495" 
77-121518-0042 ",AND,I,AM,VERY,SORRY,,FOR,YOU,,WHEN,SHE,HAD,THUS,SPOKEN,,SHE,LED,THE,WAY,RAPIDLY,BEFORE,HIM,AND,ULYSSES,FOLLOWED,IN,HER,STEPS,,SO,THE,PAIR,,GODDESS,AND,MAN,,WENT,ON,AND,ON,TILL,THEY,CAME,TO,CALYPSO'S,CAVE," "0.190,0.320,0.370,0.550,0.840,1.310,1.380,1.580,1.840,2.970,3.280,3.400,3.600,3.790,4.400,4.850,5.050,5.270,5.340,5.560,6.130,6.610,7.040,7.200,7.840,8.320,8.430,8.590,9.190,9.810,10.020,10.120,10.620,10.950,11.430,11.580,12.040,12.300,12.670,13.010,13.130,13.550,13.680,13.830,14.150,14.250,14.930,15.400,15.61" 
77-121518-0043 ",CALYPSO,SET,MEAT,AND,DRINK,BEFORE,HIM,,OF,THE,FOOD,THAT,MORTALS,EAT,,BUT,HER,MAIDS,BROUGHT,AMBROSIA,AND,NECTAR,,FOR,HERSELF,,AND,THEY,LAID,THEIR,HANDS,ON,THE,GOOD,THINGS,THAT,WERE,BEFORE,THEM," "0.370,0.910,1.190,1.570,1.780,2.160,2.620,3.060,3.370,3.540,3.650,4.150,4.360,4.870,5.200,5.620,5.790,5.910,6.290,6.610,7.350,7.490,8.000,8.030,8.160,8.790,9.290,9.480,9.580,9.890,10.060,10.480,10.580,10.670,10.910,11.370,11.550,11.680,12.110,12.450,12.71" 
77-121518-0044 ",WHEN,THEY,HAD,SATISFIED,THEMSELVES,WITH,MEAT,AND,DRINK,,CALYPSO,SPOKE,,SAYING," "0.340,0.510,0.600,0.780,1.460,2.080,2.260,2.560,2.720,3.120,3.800,4.340,4.800,5.340,5.960,6.42" 
77-121518-0045 ",HE,CUT,DOWN,TWENTY,TREES,IN,ALL,AND,ADZED,,THEM,SMOOTH,,SQUARING,THEM,BY,RULE,IN,GOOD,WORKMANLIKE,FASHION,,MEANWHILE,CALYPSO,CAME,BACK,WITH,SOME,AUGERS,,SO,HE,BORED,HOLES,WITH,THEM,AND,FITTED,THE,TIMBERS,TOGETHER,WITH,BOLTS,AND,RIVETS," "0.120,0.290,0.490,0.770,1.110,1.550,1.670,2.080,2.210,2.560,2.590,2.870,3.490,3.850,4.360,4.500,4.650,5.140,5.330,5.560,6.320,7.010,7.180,7.680,8.240,8.520,8.840,9.000,9.140,9.670,9.960,10.170,10.240,10.580,10.990,11.190,11.640,11.840,12.120,12.230,12.710,13.230,13.380,13.930,14.110,14.640,14.745" 
77-121518-0046 ",HE,MADE,THE,RAFT,AS,BROAD,AS,A,SKILLED,SHIPWRIGHT," "0.100,0.290,0.560,0.660,1.140,1.280,1.720,1.850,1.940,2.390,3.070,3.23" 
77-121518-0047 ",HE,ALSO,MADE,A,MAST,WITH,A,YARD,ARM,AND,A,RUDDER,TO,STEER,WITH,,HE,FENCED,THE,RAFT,ALL,ROUND,WITH,WICKER,HURDLES,AS,A,PROTECTION,AGAINST,THE,WAVES,,AND,THEN,HE,THREW,ON,A,QUANTITY,OF,WOOD,,BY,AND,BY," "0.260,0.490,0.740,0.950,1.000,1.520,1.660,1.700,2.050,2.470,2.560,2.620,3.010,3.160,3.520,3.810,4.120,4.310,4.730,4.800,5.230,5.420,5.800,5.980,6.530,7.040,7.190,7.240,7.930,8.320,8.390,8.980,9.170,9.390,9.500,9.610,9.870,10.020,10.080,10.630,10.770,11.200,11.480,11.780,11.910,12.350,12.43" 
77-121518-0048 ",CALYPSO,BROUGHT,HIM,SOME,LINEN,TO,MAKE,THE,,SAILS,AND,HE,MADE,THESE,TOO,,EXCELLENTLY,,MAKING,THEM,FAST,WITH,BRACES,AND,SHEETS,,LAST,OF,ALL,WITH,THE,HELP,OF,LEVERS,,HE,DREW,THE,RAFT,DOWN,INTO,THE,WATER,,IN,FOUR,DAYS," "0.140,0.620,0.960,1.090,1.350,1.810,1.910,2.170,2.360,2.430,2.970,3.100,3.160,3.480,3.840,4.320,4.380,5.380,5.680,6.020,6.190,6.800,7.010,7.540,7.730,8.250,8.500,8.940,9.060,9.350,9.550,9.670,9.980,10.110,10.620,10.910,11.070,11.280,11.410,11.860,12.350,12.670,12.790,13.270,13.500,13.720,13.990,14.530,14.72" 
77-121518-0049 ",HE,HAD,COMPLETED,THE,WHOLE,WORK,,AND,ON,THE,FIFTH,,CALYPSO,SENT,HIM,FROM,THE,ISLAND,AFTER,WASHING,HIM,AND,GIVING,HIM,SOME,CLEAN,CLOTHES,,SHE,GAVE,HIM,A,GOAT,SKIN,FULL,OF,BLACK,WINE,,AND,ANOTHER,LARGER,ONE,OF,WATER," "0.100,0.230,0.410,0.980,1.070,1.340,1.760,2.220,2.350,2.490,2.590,3.140,3.400,3.880,4.190,4.410,4.600,4.740,5.380,5.700,6.150,6.470,6.630,6.930,7.120,7.330,7.660,8.240,8.560,8.750,8.970,9.110,9.170,9.530,10.050,10.200,10.320,10.720,11.320,11.440,11.610,11.950,12.430,12.640,12.780,13.290,13.335" 
77-121518-0050 ",MOREOVER,,SHE,MADE,THE,WIND,FAIR,AND,WARM,FOR,HIM,,AND,GLADLY,DID,ULYSSES,SPREAD,HIS,SAIL,BEFORE,IT,,WHILE,HE,SAT,AND,GUIDED,THE,RAFT,SKILFULLY,,BY,MEANS,OF,THE,RUDDER," "0.220,0.890,1.180,1.350,1.550,1.630,1.990,2.330,2.530,2.880,3.100,3.510,3.540,3.730,4.330,4.560,5.190,5.490,5.670,6.050,6.530,6.660,6.900,7.010,7.150,7.540,7.740,8.140,8.250,8.720,9.610,9.640,9.780,10.220,10.330,10.430,10.910,10.955" 
77-121518-0051 ",ON,LATE,SETTING,BOOTES,,AND,ON,THE,BEAR,,WHICH,MEN,ALSO,CALL,THE,WAIN,AND,WHICH,TURNS,ROUND,AND,ROUND,WHERE,IT,IS,,FACING,ORION,,AND,ALONE,NEVER,DIPPING,INTO,THE,STREAM,OF,OCEANUS,,FOR,CALYPSO,HAD,,TOLD,HIM,TO,KEEP,THIS,TO,HIS,LEFT," "0.160,0.320,0.710,1.050,1.530,1.560,1.710,1.830,1.900,2.370,2.550,2.750,3.040,3.410,3.760,3.870,4.460,4.550,4.760,5.130,5.560,5.710,6.200,6.380,6.520,6.970,7.160,7.570,8.250,8.510,8.900,9.380,9.650,10.050,10.270,10.430,10.930,11.120,11.950,12.250,12.390,12.970,13.190,13.220,13.490,13.760,13.850,14.130,14.490,14.630,14.800,15.190,15.305" 
77-121518-0052 ",DAYS,SEVEN,AND,TEN,DID,HE,SAIL,OVER,THE,SEA,,AND,ON,THE,EIGHTEENTH,,THE,DIM,OUTLINES,OF,THE,MOUNTAINS,ON,THE,NEAREST,PART,,OF,THE,PHAEACIAN,,COAST,,APPEARED,,RISING,LIKE,A,SHIELD,ON,THE,HORIZON," "0.190,0.500,0.810,1.020,1.420,1.550,1.680,2.070,2.260,2.410,3.070,3.170,3.300,3.460,3.600,4.160,4.500,4.620,4.860,5.490,5.590,5.670,6.270,6.420,6.510,7.020,7.490,7.630,7.770,7.890,8.630,8.690,9.270,9.370,10.170,10.460,10.940,11.140,11.190,11.730,11.860,11.940,12.900,13.075" 
77-121518-0053 ",BUT,KING,NEPTUNE,WHO,WAS,RETURNING,FROM,THE,ETHIOPIANS,,CAUGHT,SIGHT,OF,ULYSSES,A,LONG,WAY,OFF,,FROM,THE,MOUNTAINS,OF,THE,SOLYMI,,HE,COULD,SEE,HIM,SAILING,UPON,THE,SEA,AND,IT,MADE,HIM,VERY,ANGRY," "0.260,0.460,0.720,1.470,1.580,1.770,2.450,2.600,2.750,3.670,3.940,4.270,4.570,4.670,5.350,5.450,5.880,6.110,6.500,6.750,6.900,6.980,7.740,7.860,7.990,8.790,8.820,9.060,9.230,9.350,9.520,9.990,10.330,10.430,10.900,11.020,11.110,11.390,11.560,11.860,12.540,12.61" 
77-121518-0054 ",AND,NOW,HE,IS,CLOSE,TO,THE,LAND,OF,THE,PHAEACIANS,,WHERE,IT,IS,DECREED,THAT,HE,SHALL,ESCAPE,FROM,THE,CALAMITIES,THAT,HAVE,BEFALLEN,HIM,,STILL,,HE,SHALL,HAVE,PLENTY,OF,HARDSHIP,YET,,BEFORE,HE,HAS,DONE,WITH,IT," "0.340,0.560,0.880,1.030,1.180,1.620,1.750,1.860,2.360,2.460,2.580,3.470,3.560,3.840,4.030,4.170,4.910,5.110,5.300,5.530,6.050,6.270,6.360,7.230,7.380,7.510,8.110,8.490,8.700,9.100,9.320,9.470,9.630,9.800,10.250,10.330,10.820,11.200,11.230,11.780,11.880,12.140,12.560,12.790,12.990,13.295" 
77-121518-0055 ",THEREON,,HE,GATHERED,HIS,CLOUDS,TOGETHER,,GRASPED,HIS,TRIDENT,STIRRED,IT,ROUND,IN,THE,SEA,AND,ROUSED,THE,RAGE,OF,EVERY,WIND,THAT,BLOWS,TILL,EARTH,,SEA,AND,SKY,WERE,HIDDEN,IN,CLOUD,,AND,NIGHT,SPRANG,FORTH,,OUT,OF,THE,HEAVENS," "0.360,1.070,1.130,1.300,1.780,1.960,2.470,3.010,3.460,3.930,4.130,4.690,4.960,5.080,5.530,5.640,5.770,6.270,6.460,6.870,6.970,7.410,7.530,7.840,8.300,8.510,8.960,9.260,9.680,9.980,10.320,10.500,11.060,11.240,11.720,11.870,12.490,13.140,13.450,13.760,14.170,14.510,14.710,14.950,15.060,15.140,15.710,15.96" 
77-121518-0056 ",WINDS,FROM,,EAST,,SOUTH,,NORTH,AND,WEST,FELL,UPON,HIM,ALL,AT,THE,,SAME,TIME,,AND,A,TREMENDOUS,,SEA,GOT,UP,,SO,THAT,ULYSSES,HEART,BEGAN,TO,FAIL,HIM,,ALAS,,HE,SAID,TO,HIMSELF,IN,HIS,DISMAY,,WHAT,EVER,WILL,BECOME,OF,,ME," "0.280,0.670,0.880,0.910,1.400,1.520,2.010,2.150,2.550,2.680,3.130,3.350,3.720,4.010,4.420,4.560,4.730,4.760,5.070,5.650,5.860,6.160,6.270,7.010,7.050,7.310,7.570,7.840,8.140,8.300,8.500,9.070,9.560,10.060,10.200,10.650,11.010,11.410,12.060,12.170,12.320,12.590,12.720,13.320,13.430,13.610,14.300,14.710,15.040,15.390,15.530,15.930,16.030,16.060,16.460,16.505" 
77-121518-0057 ",I,AM,AFRAID,CALYPSO,WAS,RIGHT,WHEN,SHE,SAID,I,SHOULD,HAVE,TROUBLE,BY,SEA,BEFORE,I,GOT,BACK,HOME,,IT,IS,ALL,,COMING,TRUE,,HOW,BLACK,IS,JOVE,MAKING,HEAVEN,WITH,HIS,CLOUDS,AND,WHAT,A,SEA,THE,WINDS,ARE,RAISING,FROM,EVERY,QUARTER,AT,ONCE," "0.100,0.220,0.360,0.890,1.440,1.650,2.040,2.360,2.510,2.770,2.890,3.090,3.250,3.620,3.850,4.270,4.690,4.810,5.120,5.370,5.840,6.350,6.530,6.690,7.220,7.260,7.590,8.070,8.460,8.640,9.200,9.370,9.940,10.320,10.710,10.870,11.070,11.610,11.830,12.020,12.110,12.490,12.650,13.110,13.270,13.870,14.040,14.370,14.880,15.000,15.600,15.83" 
77-121518-0058 ",I,AM,NOW,SAFE,TO,PERISH,,BLEST,,AND,THRICE,,BLEST,,WERE,THOSE,DANAANS,,WHO,FELL,BEFORE,TROY,IN,THE,CAUSE,OF,THE,,SONS,OF,ATREUS,,WOULD,THAT,I,HAD,BEEN,KILLED,ON,THE,DAY,WHEN,THE,TROJANS,WERE,PRESSING,ME,SO,SORELY,ABOUT,THE,DEAD,BODY,OF,ACHILLES," "0.260,0.360,0.560,0.850,1.390,1.550,2.120,2.410,2.990,3.020,3.250,3.760,3.790,4.280,4.530,4.680,5.010,5.630,5.850,6.020,6.370,6.810,7.240,7.380,7.470,7.900,8.000,8.190,8.220,8.510,8.600,9.360,9.570,9.810,10.070,10.100,10.240,10.450,10.840,10.980,11.080,11.410,11.570,11.670,12.190,12.310,12.790,12.980,13.340,13.880,14.180,14.270,14.510,14.820,14.920,15.520,15.65" 
77-121518-0059 ",AS,HE,SPOKE,,A,SEA,BROKE,OVER,,HIM,WITH,,SUCH,TERRIFIC,FURY,,THAT,THE,RAFT,,REELED,AGAIN,AND,HE,WAS,CARRIED,OVERBOARD,A,LONG,WAY,OFF," "0.520,0.790,0.910,1.440,1.980,2.150,2.420,2.750,3.090,3.210,3.490,3.740,3.770,4.060,4.600,5.220,5.680,5.870,6.000,6.580,6.610,7.050,7.480,7.640,7.750,7.940,8.360,9.030,9.100,9.550,9.790,10.260,10.59" 
77-121518-0060 ",THAT,IT,BROKE,THE,MAST,,HALF,WAY,UP,,AND,BOTH,SAIL,AND,YARD,WENT,OVER,INTO,THE,SEA,,FOR,A,LONG,TIME,ULYSSES,WAS,UNDER,WATER," "0.220,0.400,0.530,0.800,0.870,1.410,1.440,1.760,1.980,2.290,2.500,2.720,2.990,3.340,3.460,3.920,4.330,4.680,5.020,5.180,5.660,6.280,6.410,6.460,6.800,7.320,7.920,8.090,8.390,8.980,9.19" 
77-121518-0061 ",BUT,AT,LAST,HE,GOT,HIS,HEAD,ABOVE,WATER,AND,SPAT,OUT,THE,BITTER,BRINE,THAT,WAS,RUNNING,DOWN,HIS,,FACE,IN,STREAMS,,IN,SPITE,OF,ALL,THIS,HOWEVER," "0.520,0.690,0.810,1.240,1.330,1.590,1.740,1.990,2.280,2.760,2.960,3.270,3.500,3.580,3.900,4.510,4.620,4.830,5.120,5.370,5.650,5.680,6.140,6.350,7.130,7.970,8.210,8.560,8.670,8.850,9.210,9.820,9.965" 
77-121518-0062 ",HE,DID,NOT,LOSE,SIGHT,OF,HIS,RAFT,,BUT,SWAM,AS,FAST,AS,HE,COULD,TOWARDS,IT,,GOT,HOLD,OF,IT,AND,CLIMBED,ON,BOARD,AGAIN,SO,AS,TO,ESCAPE,DROWNING,,THE,SEA,TOOK,THE,RAFT,,AND,TOSSED,IT,ABOUT,AS,AUTUMN,WINDS,WHIRL,THISTLEDOWN,ROUND,AND,ROUND,UPON,A,ROAD," "0.200,0.320,0.490,0.700,0.930,1.200,1.280,1.460,1.930,1.970,2.160,2.520,2.650,2.990,3.090,3.220,3.520,3.870,4.100,4.140,4.380,4.670,4.790,4.950,5.110,5.500,5.650,5.890,6.480,6.650,6.800,6.980,7.380,7.970,8.570,8.740,9.010,9.200,9.310,9.800,9.830,10.250,10.690,10.760,11.240,11.440,11.850,12.260,12.570,13.560,13.940,14.070,14.500,14.840,14.910,15.410,15.82" 
77-121518-0063 ",IT,WAS,AS,THOUGH,,THE,SOUTH,NORTH,,EAST,AND,WEST,WINDS,,WERE,ALL,PLAYING,BATTLEDORE,,AND,SHUTTLECOCK,WITH,IT,AT,ONCE," "0.450,0.610,1.060,1.250,1.760,2.250,2.430,2.970,3.440,3.600,3.920,4.060,4.390,4.900,5.140,5.340,5.560,6.030,6.770,7.100,7.410,8.040,8.250,8.370,8.530,9.020,9.57" 
77-121518-0064 ",WHEN,HE,WAS,IN,THIS,PLIGHT,,INO,DAUGHTER,OF,CADMUS,,ALSO,CALLED,LEUCOTHEA,,SAW,HIM,,SHE,HAD,FORMERLY,BEEN,A,MERE,MORTAL,BUT,HAD,BEEN,SINCE,RAISED,TO,THE,RANK,OF,A,MARINE,GODDESS," "0.520,0.680,0.760,0.950,1.100,1.300,1.800,1.830,2.400,2.800,2.970,3.680,3.710,4.210,4.970,5.540,6.040,6.260,6.720,7.230,7.390,7.570,7.980,8.170,8.230,8.520,9.130,9.300,9.480,9.710,10.070,10.560,10.640,10.780,11.180,11.280,11.360,11.850,12.490,12.8" 
77-121518-0065 ",SEEING,IN,WHAT,GREAT,DISTRESS,ULYSSES,NOW,WAS,,SHE,HAD,COMPASSION,UPON,HIM,,AND,RISING,LIKE,A,SEA,GULL,FROM,THE,WAVES,,TOOK,HER,SEAT,,UPON,THE,RAFT,,MY,POOR,GOOD,MAN,SAID,SHE," "0.370,0.810,0.960,1.180,1.460,2.120,2.720,3.060,3.660,3.910,4.150,4.380,5.080,5.480,5.740,5.960,6.220,6.650,6.830,6.910,7.150,7.470,7.640,7.730,8.340,8.570,8.780,8.930,9.350,9.410,9.790,9.870,10.330,10.920,11.210,11.500,11.750,12.200,12.430,12.860,13.07" 
77-121518-0066 ",WHY,IS,NEPTUNE,SO,FURIOUSLY,ANGRY,WITH,YOU,,HE,IS,GIVING,YOU,A,GREAT,DEAL,OF,TROUBLE,,BUT,FOR,ALL,HIS,BLUSTER,HE,WILL,NOT,KILL,YOU,,YOU,SEEM,TO,BE,A,SENSIBLE,PERSON,,DO,THEN,AS,I,BID,YOU,,STRIP," "0.270,0.750,0.920,1.570,1.770,2.440,2.940,3.170,3.510,3.960,4.110,4.240,4.510,4.650,4.700,4.970,5.170,5.280,5.840,6.300,6.520,6.660,7.080,7.290,7.950,8.150,8.390,8.700,8.970,9.310,9.760,9.980,10.240,10.330,10.430,10.550,11.160,11.760,12.340,12.630,12.910,13.060,13.180,13.490,13.850,14.410,15.190,15.21" 
77-121518-0067 ",LEAVE,YOUR,RAFT,TO,DRIVE,BEFORE,THE,WIND,AND,SWIM,TO,THE,PHAEACIAN,COAST,WHERE,BETTER,LUCK,AWAITS,YOU,,AND,HERE,,TAKE,MY,VEIL,AND,PUT,IT,ROUND,YOUR,CHEST,,IT,IS,ENCHANTED,AND,YOU,CAN,COME,TO,NO,HARM,SO,LONG,AS,YOU,WEAR,IT," "0.140,0.480,0.620,1.050,1.150,1.560,1.900,2.010,2.510,2.700,3.060,3.200,3.350,4.160,4.610,4.730,5.040,5.400,5.890,6.200,7.690,7.950,8.440,8.810,9.080,9.220,9.580,9.750,9.880,10.000,10.400,10.550,11.120,11.440,11.620,11.850,12.700,12.900,13.010,13.200,13.490,13.570,13.730,14.200,14.350,14.640,14.760,14.890,15.160,15.430,15.725" 
77-121518-0068 ",AS,SOON,AS,YOU,TOUCH,LAND,,TAKE,IT,OFF,,THROW,IT,BACK,AS,FAR,AS,YOU,CAN,INTO,THE,SEA,,AND,THEN,GO,AWAY,AGAIN,,WITH,THESE,WORDS," "0.280,0.590,0.780,0.910,1.010,1.310,1.950,2.100,2.360,2.460,2.920,3.270,3.470,3.620,3.890,4.020,4.310,4.430,4.560,4.940,5.170,5.330,5.880,6.010,6.240,6.420,6.580,6.980,7.520,8.220,8.540,8.790,9.350,9.46" 
77-121518-0069 ",THEN,SHE,DIVED,DOWN,AGAIN,LIKE,A,SEA,GULL,AND,VANISHED,BENEATH,THE,DARK,BLUE,WATERS,,BUT,ULYSSES,DID,NOT,KNOW,WHAT,TO,THINK,,ALAS,,HE,SAID,TO,HIMSELF,IN,HIS,DISMAY," "0.260,0.500,0.630,1.030,1.330,1.730,1.940,2.020,2.260,2.640,2.840,3.310,3.840,4.000,4.420,4.670,5.410,6.750,6.960,7.720,7.910,8.220,8.380,8.610,8.710,9.270,10.210,10.920,11.060,11.270,11.540,11.650,12.260,12.360,12.550,13.190,13.485" 
77-121518-0070 ",THIS,IS,ONLY,SOME,ONE,OR,OTHER,OF,THE,GODS,WHO,IS,LURING,ME,TO,RUIN,BY,ADVISING,ME,TO,,QUIT,MY,RAFT,,AT,ANY,RATE,,I,WILL,NOT,DO,SO,AT,PRESENT,,FOR,THE,LAND,WHERE,SHE,SAID,I,SHOULD,BE,QUIT,,OF,ALL,TROUBLES," "0.330,0.590,0.820,1.220,1.630,1.980,2.200,2.430,2.540,2.650,3.170,3.270,3.420,3.950,4.200,4.430,4.870,5.050,5.640,5.870,6.240,6.520,7.010,7.210,7.850,8.550,8.720,8.940,9.340,9.370,9.530,9.670,9.920,10.100,10.330,10.500,11.100,11.500,11.640,11.740,12.220,12.420,12.630,12.950,13.110,13.330,13.490,13.890,14.000,14.250,14.520,15.170,15.45" 
77-121518-0071 ",SEEMED,TO,BE,STILL,A,GOOD,WAY,OFF,,I,KNOW,WHAT,I,WILL,DO,,I,AM,SURE,IT,WILL,BE,BEST,,NO,MATTER,WHAT,HAPPENS,,I,WILL,STICK,TO,THE,RAFT,,AS,LONG,AS,HER,TIMBERS,HOLD,TOGETHER,,BUT,WHEN,THE,SEA,BREAKS,HER,UP,I,WILL,SWIM,FOR,IT," "0.290,0.860,0.970,1.290,1.640,1.710,1.920,2.170,2.800,2.830,3.090,3.360,3.550,3.680,3.870,4.340,5.330,5.480,5.650,5.970,6.070,6.210,6.330,6.900,6.940,7.080,7.330,7.510,8.290,8.680,8.890,9.060,9.420,9.530,9.640,10.130,10.320,10.630,10.940,11.060,11.220,11.690,12.000,12.570,12.960,13.090,13.280,13.380,13.630,13.970,14.110,14.450,14.540,14.720,15.170,15.420,15.730,15.775" 
77-121518-0072 ",I,DO,NOT,SEE,HOW,I,CAN,DO,ANY,BETTER,THAN,THIS,,WHILE,HE,WAS,THUS,IN,TWO,MINDS,,NEPTUNE,SENT,A,TERRIBLE,GREAT,WAVE,,THAT,SEEMED,TO,REAR,ITSELF,ABOVE,HIS,HEAD,,TILL,IT,BROKE,RIGHT,OVER,THE,RAFT," "0.150,0.300,0.430,0.770,0.960,1.300,1.430,1.610,1.790,1.940,2.350,2.590,2.920,3.560,3.780,3.880,4.100,4.520,4.750,4.930,5.630,5.960,6.580,6.920,6.990,7.530,7.870,8.320,8.350,8.550,8.800,8.950,9.210,9.740,10.010,10.230,10.640,10.970,11.110,11.220,11.500,11.750,11.940,12.070,12.450,12.495" 
77-121518-0073 ",WHICH,THEN,WENT,TO,PIECES,AS,THOUGH,IT,WERE,A,HEAP,OF,DRY,CHAFF,,TOSSED,ABOUT,,BY,A,WHIRLWIND,,ULYSSES,GOT,ASTRIDE,OF,ONE,PLANK,AND,RODE,UPON,IT,,AS,IF,HE,WERE,ON,HORSEBACK,,HE,THEN,TOOK,OFF,THE,CLOTHES,CALYPSO,HAD,GIVEN,HIM," "0.0,0.290,0.520,0.700,0.780,1.530,1.700,1.910,2.050,2.160,2.270,2.620,2.730,3.060,3.600,3.700,4.110,4.550,4.590,4.730,4.830,5.690,6.010,6.530,6.750,7.330,7.440,7.730,8.310,8.490,8.720,9.110,9.250,9.500,9.680,9.810,9.910,10.100,10.250,10.920,11.040,11.370,11.650,11.850,12.090,12.180,12.630,13.180,13.310,13.640,14.020,14.1649375" 
77-121518-0074 ",BOUND,,INO'S,VEIL,UNDER,HIS,ARMS,,AND,PLUNGED,INTO,THE,,SEA,,MEANING,TO,SWIM,ON,SHORE,,KING,NEPTUNE,WATCHED,HIM,AS,HE,DID,SO,,AND,WAGGED,HIS,HEAD,MUTTERING,TO,HIMSELF,,AND,SAYING,,THERE,NOW,,SWIM,UP,AND,DOWN,AS,YOU,BEST,CAN," "0.200,0.630,0.660,1.100,1.700,1.970,2.210,2.740,2.950,3.130,3.640,3.860,4.020,4.100,4.550,4.980,5.340,5.520,6.000,6.270,6.760,7.160,7.370,8.040,8.420,8.630,8.740,8.840,9.120,9.530,9.560,9.700,10.170,10.380,10.870,11.390,11.530,12.180,12.210,12.400,13.020,13.330,13.590,14.090,14.180,14.540,14.730,14.890,15.410,15.570,15.740,16.160,16.730,16.7800625" 
77-121518-0075 ",I,DO,NOT,THINK,YOU,WILL,BE,ABLE,TO,SAY,THAT,I,HAVE,LET,YOU,OFF,TOO,LIGHTLY,,ON,THIS,HE,LASHED,HIS,HORSES," "0.270,0.380,0.490,0.820,1.130,1.220,1.370,1.530,1.850,2.010,2.390,2.570,2.630,2.870,3.120,3.310,3.720,3.920,4.620,4.920,5.160,5.380,5.520,6.030,6.180,6.810,7.01" 
77-121518-0076 ",BUT,MINERVA,RESOLVED,TO,HELP,ULYSSES,,SO,SHE,BOUND,THE,WAYS,OF,ALL,THE,WINDS,EXCEPT,ONE,AND,MADE,THEM,LIE,QUITE,STILL,,BUT,SHE,ROUSED,A,GOOD,STIFF,BREEZE,FROM,THE,NORTH,,THAT,SHOULD,LAY,THE,WATERS,TILL,ULYSSES,REACHED,THE,LAND,OF,THE,PHAEACIANS,WHERE,HE,WOULD,BE,SAFE," "0.280,0.430,0.930,1.510,1.630,1.990,2.700,2.820,3.030,3.190,3.620,3.700,4.160,4.300,4.590,4.700,5.160,5.650,6.110,6.250,6.480,6.620,7.020,7.440,7.950,8.200,8.410,8.540,9.030,9.090,9.350,9.630,10.130,10.310,10.380,10.890,11.260,11.430,11.560,11.810,11.940,12.510,12.700,13.410,13.800,13.880,14.380,14.470,14.580,15.530,15.690,15.880,16.050,16.220,16.720,17.0" 
77-121518-0077 ",THEREON,HE,FLOATED,ABOUT,FOR,TWO,NIGHTS,AND,TWO,DAYS,IN,THE,WATER,,WITH,A,HEAVY,SWELL,ON,THE,SEA,AND,DEATH,,STARING,HIM,IN,THE,FACE,,BUT,WHEN,THE,THIRD,DAY,BROKE,,THE,WIND,FELL,AND,THERE,WAS,A,DEAD,CALM,WITHOUT,SO,MUCH,AS,A,BREATH,,OF,,AIR,STIRRING," "0.330,0.730,0.870,1.360,1.860,2.010,2.210,2.700,2.840,3.000,3.460,3.560,3.620,4.160,4.340,4.580,4.660,4.950,5.330,5.460,5.570,6.060,6.260,6.920,6.950,7.410,7.620,7.730,7.830,8.360,8.650,8.820,8.990,9.110,9.500,9.690,10.110,10.280,10.390,10.760,11.190,11.380,11.520,11.700,11.820,12.220,12.730,13.170,13.350,13.640,13.730,13.790,14.240,14.270,14.420,14.450,14.730,15.400,15.47" 
77-121518-0078 ",AS,HE,ROSE,ON,THE,SWELL,HE,LOOKED,EAGERLY,AHEAD,,AND,COULD,SEE,LAND,QUITE,NEAR,,THEN,,AS,CHILDREN,REJOICE,WHEN,THEIR,DEAR,FATHER,BEGINS,TO,GET,BETTER,,AFTER,HAVING,FOR,A,LONG,TIME,BORNE,SORE,AFFLICTION,,SENT,HIM,BY,SOME,ANGRY,SPIRIT," "0.130,0.340,0.440,0.840,0.960,1.080,1.600,1.730,2.020,2.440,2.960,3.140,3.270,3.460,3.620,4.100,4.460,4.770,5.050,5.490,5.830,6.180,6.740,7.290,7.490,7.640,7.890,8.300,8.800,8.910,9.130,9.600,9.660,9.990,10.430,10.560,10.670,11.130,11.610,11.940,12.490,13.270,13.540,13.920,14.220,14.450,14.790,15.370,15.930,16.065" 
77-121518-0079 ",BUT,THE,GODS,DELIVER,HIM,,FROM,EVIL,,SO,WAS,ULYSSES,THANKFUL,WHEN,HE,AGAIN,SAW,LAND,AND,TREES,,AND,SWAM,ON,WITH,ALL,HIS,STRENGTH,,THAT,HE,MIGHT,ONCE,MORE,SET,FOOT,UPON,DRY,GROUND," "0.210,0.360,0.460,0.940,1.410,1.990,2.020,2.250,2.890,3.150,3.430,3.670,4.300,4.910,5.090,5.240,5.710,5.950,6.480,6.650,7.220,7.350,7.620,7.990,8.250,8.440,8.760,8.940,9.390,9.550,9.690,9.760,10.020,10.310,10.730,11.000,11.330,11.710,12.010,12.700,12.765" 
77-121518-0080 ",FOR,THE,SWELL,STILL,BROKE,AGAINST,THEM,WITH,A,TERRIFIC,ROAR,,EVERYTHING,WAS,ENVELOPED,IN,SPRAY,,THERE,WERE,NO,HARBOURS,,WHERE,A,SHIP,,MIGHT,RIDE,,NOR,SHELTER,OF,ANY,KIND,,BUT,ONLY,HEADLANDS," "0.250,0.360,0.520,1.000,1.280,1.590,2.060,2.260,2.480,2.560,3.110,3.670,3.830,4.300,4.480,5.090,5.260,5.900,6.170,6.280,6.370,6.580,7.230,7.270,7.470,7.590,8.000,8.030,8.360,8.870,9.180,9.490,9.950,10.080,10.340,11.010,11.750,11.950,12.230,12.900,12.985" 
77-121518-0081 ",LOW,LYING,ROCKS,,AND,MOUNTAIN,TOPS,,ULYSSES,HEART,,NOW,BEGAN,TO,FAIL,HIM,AND,HE,SAID,DESPAIRINGLY,TO,HIMSELF,,ALAS,,JOVE,HAS,LET,ME,SEE,LAND,AFTER,SWIMMING,SO,FAR,,THAT,I,HAD,GIVEN,UP,ALL,HOPE," "0.100,0.270,0.640,1.110,1.140,1.280,1.720,2.050,2.080,2.670,3.140,3.240,3.500,3.990,4.140,4.540,4.910,5.010,5.120,5.420,6.320,6.460,7.250,7.410,8.040,8.420,8.790,8.990,9.180,9.320,9.520,10.020,10.330,10.780,11.060,11.620,11.670,11.960,12.040,12.230,12.600,12.800,13.020,13.350,13.455" 
77-121518-0082 ",BUT,I,CAN,FIND,NO,LANDING,PLACE,FOR,THE,COAST,,IS,ROCKY,AND,SURF,BEATEN,,THE,ROCKS,ARE,SMOOTH,AND,RISE,SHEER,FROM,THE,SEA,,WITH,DEEP,WATER,CLOSE,UNDER,THEM,,SO,THAT,I,CANNOT,CLIMB,OUT,,FOR,WANT,OF,FOOT,HOLD," "0.160,0.320,0.420,0.620,0.880,1.000,1.550,1.970,2.270,2.390,2.790,2.820,2.970,3.490,3.680,3.990,4.560,4.740,4.840,5.280,5.390,5.950,6.070,6.460,6.830,7.030,7.140,7.620,7.810,8.090,8.340,8.670,9.100,9.410,9.760,10.030,10.220,10.380,10.480,10.910,11.280,11.580,11.640,11.750,12.150,12.310,12.470,12.940,13.16" 
77-121518-0083 ",I,AM,AFRAID,SOME,GREAT,WAVE,WILL,LIFT,ME,OFF,MY,LEGS,AND,DASH,ME,AGAINST,THE,ROCKS,,AS,I,LEAVE,THE,WATER,,WHICH,WOULD,GIVE,ME,A,SORRY,LANDING,,IF,ON,THE,OTHER,HAND,I,SWIM,FURTHER,IN,SEARCH,OF,SOME,SHELVING,BEACH,OR,HARBOUR," "0.070,0.380,0.490,1.040,1.240,1.500,1.960,2.120,2.440,2.640,2.860,3.030,3.500,3.670,4.010,4.150,4.530,4.620,5.100,5.130,5.290,5.410,5.670,5.750,6.310,6.580,6.940,7.130,7.390,7.690,7.950,8.570,9.320,9.620,10.020,10.160,10.260,10.470,11.060,11.190,11.760,12.160,12.350,12.720,12.830,13.070,13.640,14.050,14.090,14.710,14.86" 
77-121518-0084 ",A,HURRICANE,MAY,CARRY,ME,OUT,TO,SEA,AGAIN,,SORELY,AGAINST,MY,WILL,,OR,HEAVEN,,MAY,SEND,SOME,GREAT,MONSTER,OF,THE,DEEP,TO,ATTACK,ME,,FOR,AMPHITRITE," "0.190,0.370,0.990,1.170,1.540,1.710,1.920,2.050,2.300,2.790,2.990,3.530,4.000,4.180,4.720,5.180,5.360,6.000,6.300,6.520,6.790,6.990,7.230,7.830,7.950,8.070,8.410,8.550,9.060,9.390,9.540,9.720,10.490,10.505" 
77-121518-0085 ",BREEDS,MANY,SUCH,AND,I,KNOW,THAT,NEPTUNE,IS,VERY,ANGRY,WITH,ME,,WHILE,HE,WAS,THUS,IN,TWO,MINDS,A,WAVE,CAUGHT,HIM,AND,TOOK,HIM,WITH,SUCH,,FORCE," "0.120,0.570,0.950,1.440,1.580,1.670,1.960,2.150,2.820,2.940,3.460,3.960,4.190,4.620,4.700,4.930,5.030,5.260,5.610,5.790,5.970,6.690,6.790,7.180,7.500,7.720,7.910,8.130,8.270,8.530,8.910,8.970,9.520,9.685" 
77-121518-0086 ",AGAINST,THE,ROCKS,THAT,HE,WOULD,HAVE,BEEN,SMASHED,AND,TORN,TO,PIECES,IF,MINERVA,HAD,NOT,SHOWN,HIM,WHAT,TO,DO,,HE,CAUGHT,HOLD,OF,THE,ROCK,WITH,BOTH,HANDS,AND,CLUNG,TO,IT,GROANING,WITH,PAIN,,TILL,THE,WAVE,RETIRED,,SO,HE,WAS,SAVED,THAT,,TIME," "0.150,0.700,0.810,1.280,1.430,1.550,1.740,1.890,2.130,2.830,3.010,3.300,3.390,4.080,4.190,4.800,4.910,5.190,5.470,5.580,5.800,5.910,6.310,6.980,7.130,7.410,7.710,7.790,7.890,8.230,8.350,8.570,9.120,9.300,9.650,9.820,9.920,10.440,10.670,11.270,11.540,11.700,11.790,12.160,12.980,13.280,13.470,13.580,13.770,14.170,14.480,14.510,14.960,15.065" 
77-121518-0087 ",BUT,PRESENTLY,THE,WAVE,CAME,ON,AGAIN,AND,CARRIED,HIM,BACK,WITH,IT,,FAR,INTO,THE,SEA,TEARING,HIS,,HANDS,AS,THE,SUCKERS,OF,A,POLYPUS,ARE,TORN,WHEN,SOME,ONE,PLUCKS,IT,FROM,ITS,BED," "0.150,0.390,0.990,1.110,1.480,1.770,1.960,2.370,2.540,2.880,3.020,3.340,3.580,3.890,3.930,4.230,4.480,4.640,5.100,5.530,5.720,5.760,6.270,6.420,6.530,7.090,7.220,7.300,7.900,8.080,8.580,8.830,9.040,9.310,9.720,9.840,10.030,10.170,10.610,10.73" 
77-121518-0088 ",AND,THE,STONES,COME,UP,ALONG,WITH,IT,,EVEN,SO,DID,THE,ROCKS,TEAR,THE,SKIN,FROM,HIS,STRONG,HANDS,,AND,THEN,THE,WAVE,DREW,HIM,DEEP,,DOWN,UNDER,THE,WATER,,HERE," "0.150,0.320,0.430,1.070,1.310,1.470,1.930,2.150,2.400,2.540,2.940,3.220,3.380,3.500,3.900,4.170,4.320,4.830,5.040,5.180,5.620,6.230,6.390,6.550,6.690,6.770,7.260,7.490,7.740,8.140,8.300,8.950,9.260,9.380,9.970,10.230,10.740,10.8" 
77-121518-0089 ",POOR,ULYSSES,WOULD,HAVE,CERTAINLY,PERISHED,,EVEN,IN,SPITE,OF,HIS,OWN,DESTINY,IF,MINERVA,HAD,NOT,HELPED,HIM,TO,KEEP,HIS,WITS,ABOUT,HIM,,HE,SWAM,SEAWARD,AGAIN,BEYOND,REACH,OF,THE,SURF,THAT,WAS,BEATING,AGAINST,THE,LAND," "0.160,0.490,1.260,1.400,1.590,2.030,2.760,2.880,3.120,3.260,3.630,3.690,3.840,4.070,4.840,5.020,5.620,5.730,5.940,6.300,6.540,6.640,6.860,7.020,7.380,7.720,8.020,8.260,8.550,8.990,9.390,10.000,10.500,10.780,10.880,11.000,11.420,11.560,11.720,12.090,12.580,12.660,13.290,13.47" 
77-121518-0090 ",AND,AT,THE,SAME,TIME,HE,KEPT,LOOKING,TOWARDS,THE,SHORE,TO,SEE,IF,HE,COULD,FIND,SOME,HAVEN,,OR,A,SPIT,THAT,SHOULD,TAKE,THE,WAVES,ASLANT,,BY,AND,BY,,AS,HE,SWAM,ON,,HE,CAME,TO,THE,MOUTH,OF,A,RIVER," "0.170,0.390,0.500,0.610,0.970,1.460,1.570,1.800,2.130,2.440,2.570,3.010,3.180,3.340,3.450,3.550,3.720,4.150,4.310,4.930,5.280,5.550,5.620,6.010,6.170,6.300,6.510,6.600,7.090,7.850,8.360,8.690,8.830,9.250,9.450,9.710,9.870,10.290,10.680,10.710,11.170,11.440,11.530,11.640,11.980,12.090,12.190,12.620,12.74" 
77-121518-0091 ",AND,HERE,HE,THOUGHT,WOULD,BE,THE,BEST,PLACE,FOR,THERE,WERE,NO,ROCKS,AND,IT,AFFORDED,SHELTER,FROM,THE,WIND,,HE,FELT,THAT,THERE,WAS,A,CURRENT,,SO,HE,PRAYED,INWARDLY,,AND,SAID,,HEAR,ME,O,KING,,WHOEVER,YOU,MAY,BE," "0.240,0.420,0.640,0.770,1.170,1.280,1.380,1.510,1.860,2.250,2.420,2.540,2.640,2.840,3.420,3.620,3.720,4.200,4.830,5.010,5.100,5.600,5.630,6.100,6.380,6.540,6.690,6.870,6.940,7.480,7.790,7.890,8.030,8.530,9.510,9.700,9.950,10.420,10.810,11.080,11.280,11.430,12.100,12.340,12.920,13.120,13.330,13.860,14.005" 
77-121518-0092 ",AND,SAVE,ME,FROM,THE,ANGER,OF,THE,SEA,GOD,NEPTUNE,,FOR,I,APPROACH,YOU,PRAYERFULLY,,ANY,ONE,WHO,HAS,LOST,HIS,WAY,HAS,AT,ALL,TIMES,A,CLAIM,EVEN,UPON,THE,GODS," "0.200,0.490,0.840,1.000,1.160,1.290,1.730,1.870,1.980,2.270,2.590,3.400,3.850,4.080,4.190,4.750,4.850,5.710,6.060,6.280,6.470,6.550,6.730,7.130,7.290,7.710,8.100,8.220,8.570,9.070,9.170,9.740,10.200,10.660,10.760,11.410,11.5" 
77-121518-0093 ",HAVE,MERCY,UPON,ME,O,KING,,FOR,I,DECLARE,MYSELF,,YOUR,SUPPLIANT,,THEN,THE,GOD,,STAID,HIS,STREAM,AND,STILLED,THE,WAVES,,MAKING,ALL,CALM,BEFORE,HIM,,AND,BRINGING,HIM,SAFELY,INTO,THE,MOUTH,OF,THE,RIVER,,HERE," "0.170,0.410,0.890,1.340,1.520,1.650,2.150,2.410,2.560,2.660,3.110,3.900,3.940,4.190,4.960,5.090,5.320,5.400,6.000,6.160,6.570,6.780,7.360,7.520,7.910,8.010,8.620,8.650,9.050,9.390,9.880,10.320,10.720,10.990,11.220,11.560,11.690,12.180,12.380,12.500,12.800,12.920,13.020,13.430,13.580,14.270,14.315" 
77-121518-0094 ",AT,LAST,ULYSSES,KNEES,AND,STRONG,HANDS,FAILED,HIM,FOR,THE,SEA,HAD,COMPLETELY,BROKEN,HIM,,HIS,BODY,WAS,ALL,SWOLLEN," "0.120,0.410,0.880,1.430,1.960,2.140,2.540,3.030,3.490,3.820,3.930,4.090,4.350,4.550,5.110,5.570,5.920,6.210,6.380,6.680,6.900,7.170,7.920,7.965" 
77-121518-0095 ",SO,THAT,HE,COULD,NEITHER,BREATHE," "0.250,0.420,0.630,0.760,0.970,1.360,1.900,2.075" 
77-121518-0096 ",WHEREON,INO,RECEIVED,IT,INTO,HER,HANDS,FROM,THE,WAVE,THAT,BORE,IT,TOWARDS,,HER,,THEN,HE,LEFT,THE,RIVER,,LAID,HIMSELF,DOWN,AMONG,THE,RUSHES,,AND,KISSED," "0.190,0.530,0.840,1.400,1.490,1.810,1.940,2.510,2.670,2.750,3.170,3.400,3.640,3.800,4.190,4.220,4.560,4.840,4.980,5.070,5.400,5.510,5.960,6.150,6.410,6.840,7.170,7.470,7.580,8.250,8.440,8.730,9.340,9.4" 
77-121518-0097 ",THE,BOUNTEOUS,,EARTH,,ALAS,HE,CRIED,TO,HIMSELF,IN,HIS,DISMAY,WHAT,EVER,WILL,BECOME,OF,,ME,AND,HOW,IS,IT,ALL,TO,END,,IF,I,STAY,HERE,UPON,THE,RIVER,BED,,THROUGH,THE,LONG,WATCHES,OF,THE,NIGHT," "0.110,0.220,0.950,1.060,1.510,1.660,2.230,2.400,2.800,2.890,3.510,3.590,3.780,4.540,4.830,5.140,5.320,5.740,5.870,5.900,6.360,6.510,6.780,6.910,7.090,7.540,7.760,8.390,8.810,8.960,9.070,9.340,9.600,9.940,10.020,10.300,10.840,11.080,11.310,11.430,11.790,12.440,12.600,12.690,13.070,13.135" 
77-121518-0098 ",I,AM,SO,EXHAUSTED,THAT,THE,BITTER,COLD,AND,DAMP,MAY,MAKE,AN,END,OF,ME,,FOR,TOWARDS,SUNRISE,THERE,WILL,BE,A,KEEN,WIND,BLOWING,FROM,OFF,THE,RIVER,,IF,ON,THE,OTHER,HAND,I,CLIMB,THE,HILL,SIDE,,FIND,SHELTER,IN,THE,WOODS,,AND,SLEEP,IN,SOME,THICKET," "0.140,0.270,0.480,0.740,1.500,1.670,1.750,2.060,2.540,2.730,3.200,3.350,3.650,3.810,4.210,4.350,4.720,5.030,5.210,5.590,6.330,6.450,6.570,6.730,6.800,7.290,7.720,8.200,8.380,8.740,8.850,9.280,9.710,9.930,10.080,10.190,10.420,10.870,10.970,11.380,11.440,11.860,12.410,12.850,13.190,13.550,13.660,13.740,14.210,14.240,14.430,14.760,14.950,15.240,15.740,15.92" 
77-121518-0099 ",I,MAY,ESCAPE,THE,COLD,AND,HAVE,A,GOOD,NIGHT'S,REST,,BUT,SOME,SAVAGE,BEAST,MAY,TAKE,ADVANTAGE,OF,ME,AND,DEVOUR,ME," "0.250,0.370,0.580,1.110,1.210,1.710,1.810,1.950,2.010,2.210,2.580,2.920,3.230,3.430,3.680,4.210,4.700,4.850,5.060,5.680,5.820,6.160,6.300,6.830,7.160,7.37" 
77-121518-0100 ",THERE,HE,CREPT,BENEATH,TWO,SHOOTS,OF,OLIVE,THAT,GREW,FROM,A,SINGLE,STOCK,,THE,ONE,AN,UNGRAFTED,SUCKER,WHILE,THE,OTHER,HAD,BEEN,GRAFTED,,NO,WIND,HOWEVER,SQUALLY," "0.240,0.510,0.640,1.090,1.500,1.730,2.180,2.310,2.830,3.010,3.250,3.480,3.570,3.960,4.460,4.800,4.910,5.350,5.550,6.480,6.870,7.180,7.330,7.590,7.820,7.990,8.660,9.190,9.480,10.040,10.480,11.200,11.245" 
77-121518-0101 ",FOR,THERE,WAS,A,GREAT,LITTER,OF,DEAD,LEAVES,LYING,ABOUT,ENOUGH,TO,MAKE,A,,COVERING,FOR,TWO,OR,THREE,MEN,EVEN,IN,HARD,WINTER,WEATHER,,HE,WAS,GLAD,ENOUGH,TO,SEE,THIS,,SO,HE,LAID,HIMSELF,DOWN,AND,HEAPED,THE,LEAVES,ALL,ROUND,HIM," "0.240,0.370,0.470,0.610,0.670,0.950,1.290,1.640,1.910,2.420,2.830,3.330,3.640,3.750,3.980,4.040,4.070,4.620,4.740,4.950,5.030,5.300,5.670,6.030,6.180,6.670,7.020,7.490,8.020,8.180,8.350,8.730,9.050,9.220,9.420,9.840,10.130,10.240,10.320,10.610,11.060,11.490,11.610,12.010,12.110,12.580,12.810,13.270,13.680,13.695" 
77-121518-0102 ",THEN,AS,ONE,WHO,LIVES,ALONE,IN,THE,COUNTRY,,FAR,FROM,ANY,NEIGHBOR,,HIDES,A,BRAND,AS,FIRE,SEED,IN,THE,ASHES,TO,SAVE,HIMSELF,FROM,,HAVING,TO,GET,A,LIGHT,ELSEWHERE," "0.150,0.630,0.770,1.010,1.120,1.380,1.830,1.930,2.010,2.670,2.770,3.050,3.250,3.430,3.970,4.160,4.510,4.570,5.120,5.260,5.720,6.080,6.190,6.320,6.940,7.110,7.390,7.910,8.090,8.120,8.410,8.500,8.660,8.750,9.150,9.800,9.96" 