8543-280375-0000 ",IN,THE,DAYS,OF,LONG,AGO,,THERE,REIGNED,OVER,ITHACA,,A,RUGGED,LITTLE,ISLAND,IN,THE,SEA,TO,THE,WEST,OF,GREECE,,A,KING,WHOSE,NAME,,WAS,,ODYSSEUS,,ODYSSEUS,FEARED,NO,MAN,,STRONGER,AND,BRAVER,THAN,OTHER,MEN,WAS,HE," "0.210,0.360,0.450,0.820,0.970,1.270,1.700,1.730,1.950,2.340,2.560,3.040,3.070,3.210,3.520,3.850,4.190,4.320,4.410,4.730,4.860,4.980,5.290,5.390,5.860,5.890,5.980,6.300,6.590,7.020,7.050,7.390,7.430,8.070,8.790,9.370,9.670,9.880,10.310,10.510,11.050,11.230,11.710,11.950,12.220,12.500,12.670,13.020,13.22" 
8543-280375-0001 ",WISER,AND,MORE,,FULL,OF,CLEVER,DEVICES,,FAR,AND,WIDE,HE,WAS,KNOWN,AS,ODYSSEUS,,OF,THE,MANY,COUNSELS," "0.230,0.700,0.890,1.310,1.340,1.770,1.950,2.300,3.110,3.580,3.950,4.120,4.520,4.720,4.930,5.220,5.350,6.030,6.060,6.220,6.300,6.590,7.340,7.55" 
8543-280375-0002 ",WHILE,THEIR,ONLY,CHILD,,A,BOY,NAMED,,TELEMACHUS,,WAS,STILL,A,BABY,,THERE,WAS,A,VERY,GREAT,WAR,IN,TROYLAND,,A,COUNTRY,FAR,ACROSS,THE,SEA,,THE,BROTHER,OF,THE,OVERLORD,OF,ALL,GREECE,BESEIGED,TROY," "0.330,0.620,0.750,1.050,1.680,1.820,1.930,2.270,2.560,2.610,3.530,3.680,3.950,4.240,4.300,4.840,5.270,5.430,5.690,5.750,6.120,6.460,6.820,6.970,7.730,8.060,8.170,8.560,8.900,9.300,9.360,9.760,10.490,10.600,10.920,11.090,11.230,11.920,12.070,12.390,12.740,13.310,13.780,13.925" 
8543-280375-0003 ",AND,THE,KINGS,AND,PRINCES,OF,HIS,LAND,,CAME,TO,HELP,HIM,,MANY,CAME,FROM,AFAR,,BUT,NONE,FROM,A,MORE,DISTANT,KINGDOM,THAN,ODYSSEUS,,WIFE,AND,CHILD,AND,OLD,FATHER,HE,LEFT,BEHIND,HIM," "0.150,0.340,0.420,0.840,0.990,1.470,1.590,1.800,2.280,2.470,2.790,2.890,3.180,3.530,4.020,4.320,4.590,4.770,5.340,5.370,5.500,5.830,6.020,6.070,6.390,6.830,7.310,7.480,8.200,8.390,8.810,8.950,9.460,9.660,9.920,10.370,10.580,10.850,11.310,11.710,11.725" 
8543-280375-0004 ",AND,SAILED,AWAY,WITH,HIS,BLACK,PROWED,SHIPS,TO,FIGHT,IN,TROYLAND,,FOR,TEN,YEARS,THE,SIEGE,OF,TROY,WENT,ON," "0.170,0.330,0.700,1.060,1.230,1.400,1.820,2.180,2.580,2.730,3.060,3.180,3.840,4.480,4.630,5.010,5.460,5.550,6.000,6.090,6.450,6.730,7.100,7.285" 
8543-280375-0005 ",AND,OF,THE,HEROES,,WHO,FOUGHT,THERE,,NONE,WAS,BRAVER,THAN,ODYSSEUS,,CLAD,AS,A,BEGGAR,HE,WENT,INTO,THE,CITY,,AND,FOUND,,OUT,MUCH,TO,HELP,THE,GREEK,ARMIES," "0.270,0.430,0.550,0.630,1.200,1.340,1.470,1.860,2.160,2.240,2.580,2.760,3.150,3.360,4.180,4.640,5.020,5.190,5.270,5.600,5.790,6.130,6.360,6.450,6.910,7.040,7.320,7.720,7.750,8.020,8.380,8.530,8.840,8.930,9.270,9.880,10.095" 
8543-280375-0006 ",WITH,HIS,LONG,SWORD,HE,FOUGHT,HIS,WAY,OUT,AGAIN,,AND,LEFT,MANY,OF,THE,MEN,OF,TROY,,LYING,,DEAD,BEHIND,HIM,,AND,MANY,OTHER,BRAVE,FEATS,DID,ODYSSEUS,DO,,AFTER,LONG,YEARS,OF,FIGHTING,,TROY,AT,LAST,WAS,TAKEN," "0.270,0.410,0.620,0.910,1.310,1.490,1.820,2.030,2.220,2.510,2.900,2.950,3.140,3.450,3.750,3.850,3.940,4.250,4.420,4.770,4.800,5.390,5.420,5.690,6.160,6.470,7.180,7.410,7.720,7.930,8.260,8.720,8.940,9.530,9.870,10.690,11.010,11.380,11.720,11.800,12.350,12.410,12.900,13.070,13.400,13.560,14.080,14.27" 
8543-280375-0007 ",WITH,MUCH,RICH,PLUNDER,THE,,BESIEGERS,,SAILED,HOMEWARDS,AND,ODYSSEUS,SET,SAIL,FOR,HIS,ROCKY,ISLAND,,WITH,ITS,GREAT,MOUNTAIN,,AND,ITS,FORESTS,OF,TREMBLING,LEAVES,,OF,GLADNESS,AND,OF,LONGING,HIS,HEART,WAS,FULL," "0.230,0.480,0.840,1.160,1.650,1.800,1.830,2.520,2.640,3.050,3.690,3.840,4.380,4.590,4.940,5.090,5.340,5.770,6.270,6.410,6.650,6.950,7.380,8.220,8.250,8.430,8.610,9.150,9.370,9.930,10.610,10.960,11.120,11.800,11.960,12.110,12.650,12.830,13.190,13.400,13.860,14.06" 
8543-280375-0008 ",WITH,A,GREAT,LOVE,,HE,LOVED,HIS,FAIR,WIFE,,AND,LITTLE,SON,,AND,OLD,FATHER,,AND,HIS,LITTLE,KINGDOM,BY,THE,SEA,,WAS,VERY,DEAR,TO,HIM,,I,CAN,SEE,NOUGHT,,BESIDE,SWEETER,THAN,A,MAN'S,OWN,COUNTRY,,HE,SAID," "0.260,0.450,0.520,0.980,1.400,1.500,1.750,2.170,2.440,2.830,3.260,3.290,3.630,3.900,4.350,4.430,4.680,4.960,5.570,5.770,6.020,6.170,6.450,6.890,7.050,7.150,7.620,7.870,8.100,8.400,8.660,8.780,9.200,9.950,10.120,10.340,10.690,11.120,11.150,11.730,12.280,12.490,12.570,13.180,13.490,14.300,14.390,14.580,15.060,15.28" 
8543-280375-0009 ",VERY,SOON,HE,HOPED,TO,SEE,HIS,DEAR,LAND,AGAIN,,BUT,MANY,A,LONG,AND,WEARY,DAY,,WAS,TO,PASS,ERE,ODYSSEUS,,CAME,HOME,,ODYSSEUS,WAS,A,WARRIOR,,AND,ALWAYS,HE,,WOULD,CHOOSE,TO,FIGHT,,RATHER,THAN,TO,BE,AT,PEACE," "0.240,0.610,1.020,1.160,1.490,1.570,1.810,2.030,2.330,2.640,3.090,3.520,3.700,4.140,4.200,4.600,4.730,5.120,5.740,5.800,6.030,6.130,6.600,6.810,7.440,7.480,7.760,8.310,9.050,9.590,9.770,9.840,10.470,10.610,10.890,11.310,11.630,11.670,11.890,12.300,12.400,12.800,12.830,13.220,13.440,13.570,13.760,13.970,14.430,14.775" 
8543-280375-0010 ",AS,HE,SAILED,ON,HIS,HOMEWARD,WAY,,WINDS,DROVE,HIS,SHIPS,NEAR,THE,SHORE,,HE,AND,HIS,COMPANY,LANDED,,SACKED,THE,NEAREST,CITY,,AND,SLEW,THE,PEOPLE,,MUCH,RICH,PLUNDER,THEY,TOOK,,BUT,ERE,THEY,COULD,,RETURN,TO,THEIR,SHIPS," "0.240,0.440,0.570,1.110,1.480,1.680,2.160,2.610,3.030,3.440,3.750,3.910,4.330,4.580,4.670,5.240,5.940,6.270,6.420,6.590,7.110,7.690,7.730,8.180,8.270,8.640,9.060,9.090,9.270,9.840,9.930,10.430,11.050,11.380,11.670,12.090,12.250,12.650,12.720,12.950,13.350,13.570,13.780,13.890,14.330,14.450,14.640,15.140,15.325" 
8543-280375-0011 ",A,HOST,OF,PEOPLE,CAME,FROM,INLAND,,IN,THE,EARLY,MORNING,,THICK,AS,LEAVES,AND,FLOWERS,IN,THE,SPRING,THEY,CAME,,AND,FELL,UPON,ODYSSEUS,AND,HIS,MEN,,ALL,DAY,THEY,FOUGHT,,BUT,,AS,THE,SUN,WENT,DOWN,THE,PEOPLE,OF,THE,LAND,WON,THE,FIGHT," "0.240,0.370,0.750,0.840,1.200,1.490,1.650,2.260,2.780,2.950,3.100,3.420,3.970,4.100,4.380,4.560,5.030,5.240,5.730,5.830,5.900,6.260,6.430,6.890,7.110,7.360,7.660,8.160,8.820,9.020,9.240,9.510,10.260,10.570,10.980,11.220,11.720,11.750,12.010,12.040,12.260,12.360,12.730,13.020,13.400,13.470,13.890,14.010,14.110,14.530,14.830,14.910,15.400,15.58" 
8543-280375-0012 ",BACK,TO,THEIR,SHIPS,WENT,ODYSSEUS,,AND,HIS,MEN,,OUT,OF,EACH,SHIP,,WERE,SIX,MEN,SLAIN,,WHILE,THEY,WERE,YET,SAD,AT,HEART,AND,WEARY,FROM,THE,FIGHT,,A,TERRIBLE,TEMPEST,,AROSE,,LAND,AND,SEA,WERE,BLOTTED,OUT,,THE,SHIPS,WERE,DRIVEN,HEADLONG," "0.270,0.540,0.670,0.860,1.290,1.530,2.270,2.330,2.530,2.690,3.040,3.490,3.780,3.910,4.110,4.450,4.480,4.730,5.080,5.370,5.870,6.240,6.550,6.770,6.920,7.250,7.590,7.720,8.110,8.270,8.590,8.780,8.840,9.300,9.510,9.660,10.160,10.660,10.690,11.400,11.890,12.400,12.530,12.900,13.060,13.540,13.910,14.100,14.200,14.610,14.740,15.140,15.860,15.875" 
8543-280375-0013 ",AND,THEIR,SAILS,WERE,TORN,TO,SHREDS,BY,THE,MIGHT,OF,THE,STORM," "0.130,0.330,0.450,0.940,1.070,1.450,1.560,2.070,2.230,2.340,2.720,2.820,2.920,3.490,3.775" 
8543-280375-0014 ",AT,DAWN,ON,THE,THIRD,DAY,,THE,STORM,PASSED,AWAY,,AND,ODYSSEUS,AND,HIS,MEN,SET,UP,THEIR,MASTS,,AND,HOISTED,THEIR,WHITE,SAILS,,AND,DROVE,HOMEWARD,BEFORE,THE,WIND,,SO,HE,WOULD,HAVE,COME,SAFELY,TO,HIS,OWN,COUNTRY," "0.300,0.650,1.090,1.230,1.330,1.750,2.140,2.390,2.470,2.880,3.270,3.680,3.890,4.140,4.790,4.890,5.100,5.450,5.750,5.910,6.050,6.720,6.930,7.280,7.760,7.960,8.250,8.870,9.090,9.350,9.790,10.340,10.830,10.930,11.330,11.680,11.900,12.210,12.420,12.680,12.970,13.610,13.780,13.990,14.220,14.830,14.965" 
8543-280375-0015 ",BUT,A,STRONG,CURRENT,AND,A,FIERCE,NORTH,WIND,,SWEPT,THE,SHIPS,FROM,THEIR,COURSE,,FOR,NINE,DAYS,WERE,THEY,DRIVEN,FAR,FROM,THEIR,HOMELAND,,ACROSS,THE,DEEP,SEA,,ON,THE,TENTH,DAY,,THEY,REACHED,THE,LAND,OF,THE,,LOTUS,EATERS," "0.190,0.320,0.380,0.840,1.340,1.480,1.540,2.070,2.560,2.980,3.190,3.610,3.690,4.120,4.310,4.450,5.000,5.410,5.630,6.110,6.490,6.590,6.740,7.150,7.510,7.660,7.780,8.440,8.570,9.150,9.270,9.540,9.970,10.600,10.810,10.950,11.450,11.800,11.970,12.190,12.600,12.670,13.060,13.210,13.320,13.350,13.790,14.350,14.595" 
8543-280375-0016 ",THE,DWELLERS,IN,THAT,LAND,,FED,ON,THE,HONEY,SWEET,FRUIT,,OF,THE,LOTUS,FLOWER,,THOSE,WHO,ATE,THE,LOTUS,CEASED,TO,REMEMBER,THAT,THERE,WAS,A,PAST,OR,A,FUTURE," "0.270,0.390,0.910,1.000,1.200,1.690,1.980,2.370,2.510,2.590,2.950,3.310,3.670,3.700,3.840,3.930,4.460,5.020,5.620,6.040,6.140,6.430,6.500,7.090,7.380,7.470,7.980,8.230,8.510,8.750,8.830,9.310,9.520,9.570,10.150,10.335" 
8543-280375-0017 ",ALL,DAY,LONG,THEY,WOULD,SIT,AND,DREAM,AND,DREAM,,IDLE,,HAPPY,DREAMS,THAT,NEVER,ENDED,,HERE,ODYSSEUS,AND,HIS,MEN,LANDED,AND,DREW,WATER,,THREE,OF,HIS,WARRIORS,ODYSSEUS,SENT,INTO,THE,COUNTRY,TO,SEE,WHAT," "0.310,0.640,0.950,1.310,1.420,1.590,1.940,2.120,2.530,2.740,3.130,3.160,3.680,4.010,4.400,4.860,5.020,5.420,5.840,6.480,6.890,7.620,7.790,7.960,8.250,8.720,8.880,9.120,9.690,10.350,10.670,10.810,11.050,11.750,12.320,12.660,12.920,13.040,13.520,13.640,14.050,14.270,14.345" 
8543-280375-0018 ",MANNER,OF,MEN,DWELT,THERE,,TO,THEM,THE,LOTUS,EATERS,GAVE,THEIR,HONEY,SWEET,FOOD,,AND,NO,SOONER,HAD,,EACH,MAN,EATEN,THAN,HE,HAD,NO,WISH,EVER,TO,RETURN,TO,THE,SHIPS,,HE,LONGED,FOR,EVER,TO,STAY,IN,THAT,PLEASANT,LAND,,EATING,THE,LOTUS,FRUIT," "0.100,0.570,0.830,1.170,1.550,1.970,2.490,2.710,3.130,3.220,3.640,4.120,4.470,4.600,4.950,5.290,5.750,5.790,5.970,6.180,6.650,6.930,6.960,7.250,7.550,7.960,8.100,8.300,8.550,8.780,9.090,9.410,9.570,10.070,10.190,10.280,10.790,11.350,11.510,11.970,12.230,12.520,12.650,13.040,13.170,13.270,13.690,14.070,14.430,14.800,14.890,15.280,15.700,15.815" 
8543-280375-0019 ",AND,DREAMING,THE,HAPPY,HOURS,AWAY,,BACK,TO,THE,SHIPS,ODYSSEUS,DRAGGED,THE,UNWILLING,MEN,,WEEPING,THAT,THEY,MUST,LEAVE,SO,MUCH,JOY,BEHIND," "0.130,0.390,0.860,0.950,1.380,1.780,2.290,3.250,3.510,3.630,3.730,4.180,4.770,5.140,5.260,5.700,6.140,6.370,6.840,7.050,7.240,7.760,8.060,8.350,8.670,8.990,9.630,9.935" 
8543-280375-0020 ",BENEATH,THE,BENCHES,OF,HIS,SHIP,,HE,TIGHTLY,BOUND,THEM,,AND,SWIFTLY,HE,MADE,HIS,SHIPS,SAIL,FROM,THE,SHORE,,LEST,YET,OTHERS,OF,HIS,COMPANY,MIGHT,,EAT,OF,THE,LOTUS,AND,FORGET,THEIR,HOMES,AND,THEIR,KINDRED," "0.310,0.820,0.900,1.450,1.590,1.710,2.250,2.350,2.680,3.140,3.550,3.770,3.800,3.990,4.410,4.580,4.930,5.120,5.590,5.940,6.230,6.400,6.930,7.360,7.730,8.020,8.360,8.500,8.650,9.080,9.300,9.330,9.580,9.840,9.910,10.400,10.560,10.970,11.100,11.640,11.840,11.980,12.550,12.98" 
8543-280375-0021 ",SOON,THEY,HAD,ALL,EMBARKED,,AND,,WITH,HEAVY,HEARTS,,THE,MEN,OF,ITHACA,SMOTE,,THE,GRAY,,SEA,WATER,,WITH,THEIR,LONG,OARS,AND,SPED,AWAY,FROM,THE,LAND,OF,FORGETFULNESS,AND,,OF,SWEET,DAY,DREAMS," "0.460,0.930,1.140,1.430,1.590,2.230,2.320,2.920,2.950,3.160,3.480,3.980,4.030,4.170,4.470,4.600,5.120,5.760,5.790,5.970,6.440,6.660,6.940,7.420,7.630,7.880,8.040,8.410,8.930,9.110,9.430,9.790,9.950,10.060,10.480,10.560,11.490,11.760,11.790,12.040,12.540,12.800,13.560,14.075" 
8543-280375-0022 ",ON,AND,ON,ACROSS,THE,WAVES,,SAILED,THE,DARK,PROWED,SHIPS,OF,ODYSSEUS,,UNTIL,AGAIN,THEY,CAME,TO,LAND,,IT,WAS,THE,LAND,OF,THE,CYCLOPES,,A,SAVAGE,AND,LAWLESS,PEOPLE,,WHO,NEVER,PLANTED,,NOR,PLOWED,,NOR,SOWED," "0.400,0.750,0.900,1.200,1.640,1.770,2.190,2.270,2.630,2.710,3.070,3.410,3.860,4.030,4.720,5.010,5.470,5.920,6.070,6.440,6.570,7.000,7.480,7.640,7.780,7.890,8.230,8.340,8.450,9.170,9.240,9.360,9.880,9.980,10.360,10.800,10.900,11.090,11.380,12.130,12.160,12.400,12.940,13.060,13.340,13.940,14.03" 
8543-280375-0023 ",AND,WHOSE,FIELDS,YET,GAVE,THEM,RICH,HARVESTS,,OF,WHEAT,AND,OF,BARLEY,,AND,VINES,WITH,HEAVY,CLUSTERS,,OF,,GRAPES,,IN,DEEP,CAVES,HIGH,UP,ON,THE,HILLS,,THESE,PEOPLE,DWELT,,AND,EACH,MAN,RULED,HIS,OWN,WIFE,AND,CHILDREN," "0.120,0.390,0.710,1.240,1.470,1.770,1.910,2.200,3.020,3.050,3.260,3.590,3.780,3.940,4.450,4.740,5.090,5.700,5.870,6.250,7.230,7.330,7.610,7.750,8.230,8.610,8.910,9.270,9.750,10.170,10.320,10.440,10.530,11.020,11.300,11.590,11.930,12.360,12.450,12.650,12.900,13.320,13.590,13.820,14.060,14.370,14.560,15.070,15.23" 
8543-280375-0024 ",BUT,HIMSELF,,KNEW,NO,RULER,,OUTSIDE,THE,HARBOR,OF,THE,LAND,OF,THE,CYCLOPES,,LAY,A,THICKLY,,WOODED,,ISLAND,,NO,HUNTERS,WENT,THERE,,FOR,THE,CYCLOPES,OWNED,NEITHER,SHIPS,NOR,BOATS," "0.200,0.360,1.040,1.070,1.390,1.710,2.280,2.990,3.520,3.600,4.040,4.230,4.320,4.670,4.760,4.850,5.520,5.660,5.950,6.010,6.670,6.700,7.090,7.130,7.680,7.910,8.170,8.640,8.920,9.280,9.700,9.840,9.930,10.580,10.950,11.280,11.710,12.000,12.510,12.605" 
8543-280375-0025 ",SO,THAT,MANY,GOATS,ROAMED,,UNHARMED,THROUGH,THE,WOODS,AND,CROPPED,THE,FRESH,GREEN,GRASS,,IT,WAS,A,GREEN,AND,PLEASANT,LAND,,RICH,MEADOWS,,STRETCHED,DOWN,TO,THE,SEA,,THE,VINES,GREW,STRONG,AND,FRUITFUL," "0.160,0.360,0.530,0.880,1.420,1.880,1.910,2.650,2.950,3.080,3.520,3.760,4.200,4.280,4.730,5.080,5.660,6.010,6.140,6.320,6.390,6.930,7.150,7.660,8.110,8.470,8.960,9.440,9.490,10.010,10.330,10.440,10.530,11.020,11.540,11.670,12.100,12.350,12.880,13.090,13.780,13.85" 
8543-280375-0026 ",AND,THERE,WAS,A,FAIR,HARBOR,,WHERE,SHIPS,MIGHT,BE,RUN,RIGHT,,ON,TO,THE,BEACH,,AT,THE,HEAD,OF,THE,HARBOR,,WAS,A,WELL,OF,CLEAR,WATER,FLOWING,OUT,OF,A,CAVE,,AND,WITH,POPLARS,GROWING,AROUND,IT,,THITHER,,ODYSSEUS,,DIRECTED,HIS,SHIPS," "0.130,0.310,0.440,0.640,0.710,1.210,1.860,1.970,2.160,2.570,2.830,3.020,3.350,3.670,3.700,4.000,4.140,4.220,4.800,5.320,5.470,5.550,5.830,5.940,6.050,6.600,6.630,6.860,6.950,7.290,7.480,7.860,8.250,8.730,8.920,9.030,9.100,9.660,9.880,10.060,10.270,10.930,11.490,11.890,12.040,12.730,13.420,13.590,14.340,14.430,14.940,15.130,15.720,15.895" 
8543-280375-0027 ",IT,WAS,DARK,NIGHT,,WITH,NO,MOON,TO,GUIDE,,AND,MIST,LAY,DEEP,ON,EITHER,SIDE,,YET,THEY,PASSED,THE,BREAKERS,AND,ROLLING,SURF,,WITHOUT,KNOWING,IT,,AND,ANCHORED,SAFELY,ON,THE,BEACH,,ALL,NIGHT,THEY,SLEPT,,AND,WHEN,ROSY,DAWN,CAME," "0.210,0.390,0.650,1.010,1.460,1.620,1.840,2.120,2.440,2.560,3.050,3.260,3.530,4.020,4.260,4.690,4.920,5.260,5.710,5.990,6.230,6.370,6.820,6.900,7.490,7.740,8.100,8.670,8.740,9.110,9.600,9.860,9.980,10.190,10.620,11.260,11.450,11.520,12.060,12.720,13.030,13.330,13.590,14.080,14.190,14.360,14.580,15.030,15.440,15.960,15.98" 
8543-280375-0028 ",ALL,THE,LIVELONG,DAY,,ODYSSEUS,AND,HIS,MEN,SAT,AND,FEASTED,,AS,THEY,ATE,,AND,DRANK,THEY,LOOKED,ACROSS,THE,WATER,,AT,THE,LAND,OF,THE,CYCLOPES,,WHERE,THE,SMOKE,OF,WOOD,FIRES,,CURLED,UP,TO,THE,SKY," "0.320,0.640,0.750,1.360,1.790,2.010,2.610,2.720,2.900,3.240,3.670,3.920,4.460,4.820,5.090,5.320,5.690,5.730,5.960,6.550,6.700,7.010,7.370,7.490,7.920,7.950,8.120,8.210,8.600,8.700,8.790,9.510,9.640,9.980,10.080,10.600,10.820,11.020,11.680,11.710,12.100,12.350,12.480,12.570,13.090,13.245" 
8543-280375-0029 ",AND,FROM,WHENCE,THEY,COULD,HEAR,THE,SOUND,OF,MEN'S,VOICES,,AND,THE,BLEATING,OF,SHEEP,,AND,GOATS,,WHEN,DARKNESS,FELL,,THEY,LAY,DOWN,TO,SLEEP,ON,THE,SEA,BEACH,,AND,WHEN,MORNING,DAWNED,,ODYSSEUS,CALLED,HIS,MEN,TOGETHER,AND,SAID,TO,THEM," "0.160,0.390,0.640,1.060,1.220,1.430,1.820,1.920,2.390,2.490,2.920,3.720,3.920,4.110,4.180,4.790,4.940,5.410,5.670,5.960,6.530,7.080,7.310,7.850,8.270,8.390,8.570,8.810,9.190,9.330,9.730,9.900,10.000,10.320,10.830,11.050,11.330,11.490,11.950,12.440,12.470,13.020,13.420,13.640,13.870,14.250,14.460,14.690,14.830,15.200,15.365" 
8543-280375-0030 ",STAY,HERE,,ALL,THE,REST,OF,YOU,,MY,DEAR,COMPANIONS,,BUT,I,WILL,GO,WITH,MY,OWN,SHIP,AND,MY,,SHIP'S,COMPANY,,AND,SEE,WHAT,KIND,OF,MEN,ARE,THOSE,WHO,DWELL,IN,THIS,LAND,ACROSS,THE,HARBOR," "0.280,0.780,1.240,1.320,1.770,1.900,2.200,2.290,2.660,2.690,2.900,3.180,3.990,4.290,4.430,4.560,4.740,5.040,5.240,5.440,5.670,6.030,6.180,6.590,6.620,7.030,7.640,7.810,8.040,8.290,8.470,8.780,8.920,9.320,9.500,9.840,9.990,10.410,10.560,10.780,11.150,11.530,11.620,12.200,12.38" 
8543-280375-0031 ",SO,SAYING,,HE,CLIMBED,INTO,HIS,SHIP,,AND,HIS,MEN,ROWED,HIM,ACROSS,TO,THE,LAND,OF,THE,CYCLOPES,,WHEN,THEY,WERE,NEAR,THE,SHORE,,THEY,SAW,A,GREAT,CAVE,BY,THE,SEA," "0.270,0.640,1.250,1.290,1.410,1.890,2.160,2.330,2.670,2.700,2.850,3.040,3.390,3.710,3.920,4.510,4.680,4.780,5.190,5.330,5.440,6.160,6.730,6.920,7.020,7.170,7.440,7.540,8.100,8.290,8.460,8.880,8.940,9.320,9.730,9.910,10.020,10.520,10.635" 
8543-280375-0032 ",SHEEP,,AND,GOATS,,ROUND,ABOUT,IT,,A,HIGH,OUTER,WALL,WAS,FIRMLY,BUILT,WITH,STONES,,AND,WITH,TALL,AND,LEAFY,,PINES,AND,OAK,TREES,,IN,THIS,CAVE,,ALL,ALONE,WITH,HIS,FLOCKS,AND,HERDS," "0.150,0.650,0.730,1.050,1.620,2.040,2.450,2.830,3.110,3.140,3.240,3.720,4.050,4.450,4.660,5.100,5.450,5.620,6.260,6.440,6.700,6.960,7.340,7.550,8.050,8.100,8.660,8.920,9.180,9.780,10.240,10.440,10.710,11.270,11.330,11.620,12.050,12.240,12.480,13.090,13.280,13.860,13.99" 
8543-280375-0033 ",DWELT,A,HUGE,AND,HIDEOUS,ONE,EYED,GIANT,,POLYPHEMUS,WAS,HIS,NAME,,AND,HIS,FATHER,WAS,POSEIDON,,GOD,OF,THE,SEA," "0.200,0.520,0.610,1.170,1.320,1.830,2.120,2.500,3.110,3.370,4.230,4.390,4.590,5.020,5.260,5.470,5.630,6.120,6.330,7.040,7.220,7.590,7.770,7.870,8.330,8.6349375" 
8543-280375-0034 ",WITH,HIM,HE,CARRIED,A,GOAT,SKIN,FULL,OF,PRECIOUS,WINE,,DARK,RED,,AND,SWEET,,AND,STRONG,,AND,A,,LARGE,SACK,OF,CORN,,SOON,THEY,CAME,TO,THE,CAVE,,BUT,POLYPHEMUS,WAS,NOT,THERE,,HE,HAD,TAKEN,OFF,HIS,FLOCKS,TO,GRAZE,IN,THE,GREEN,MEADOWS," "0.240,0.450,0.710,0.830,1.250,1.360,1.680,2.150,2.560,2.740,3.140,3.560,3.740,4.100,4.530,4.680,4.980,5.480,5.510,5.700,6.220,6.310,6.490,6.580,6.610,7.010,7.370,7.490,7.930,8.470,8.930,9.040,9.350,9.450,9.540,10.100,10.180,10.410,11.110,11.270,11.550,11.960,12.200,12.350,12.560,12.970,13.240,13.500,13.990,14.100,14.640,14.920,15.080,15.410,15.890,16.01" 
8543-280375-0035 ",LEAVING,BEHIND,HIM,IN,THE,CAVE,FOLDS,FULL,OF,,LAMBS,AND,KIDS,,THE,WALLS,OF,THE,CAVE,WERE,LINED,WITH,CHEESES,,AND,THERE,WERE,GREAT,PANS,FULL,OF,WHEY,,AND,GIANT,BOWLS,,FULL,OF,MILK," "0.180,0.530,1.020,1.360,1.510,1.590,2.000,2.450,2.700,2.800,2.830,3.310,3.500,4.050,4.720,4.840,5.260,5.370,5.460,5.940,6.080,6.530,6.710,7.470,7.640,7.860,8.110,8.300,8.620,9.110,9.380,9.600,10.090,10.300,10.610,11.070,11.610,11.650,11.870,12.020,12.380,12.665" 
8543-280375-0036 ",AND,CARRY,THEM,TO,THE,SHIPS,,THEN,LET,US,RETURN,AND,DRIVE,ALL,THE,KIDS,AND,LAMBS,FROM,THEIR,FOLDS,,DOWN,TO,THE,SHORE,,AND,SAIL,WITH,THEM,IN,OUR,SWIFT,SHIPS,HOMEWARD,OVER,THE,SEA,,BUT,ODYSSEUS,WOULD,NOT,LISTEN,TO,WHAT,THEY,SAID," "0.040,0.350,0.700,1.050,1.160,1.250,1.810,2.190,2.460,2.610,2.760,3.220,3.340,3.770,3.990,4.110,4.480,4.590,5.030,5.190,5.310,5.940,6.060,6.350,6.450,6.570,7.130,7.350,7.540,7.930,8.130,8.460,8.620,8.730,9.130,9.690,10.260,10.530,10.630,11.170,11.650,11.850,12.430,12.560,12.720,13.130,13.260,13.450,13.600,14.030,14.195" 
8543-280375-0037 ",HE,WAS,TOO,GREAT,HEARTED,,TO,STEAL,INTO,THE,CAVE,LIKE,A,THIEF,,AND,TAKE,AWAY,THE,GIANT'S,GOODS,,WITHOUT,FIRST,SEEING,WHETHER,POLYPHEMUS,,MIGHT,NOT,TREAT,HIM,AS,A,FRIEND,,RECEIVING,FROM,HIM,THE,CORN,AND,WINE,HE,HAD,BROUGHT,,AND,GIVING,HIM,GIFTS,IN,RETURN," "0.220,0.370,0.560,0.840,1.150,1.650,1.840,1.980,2.340,2.590,2.710,3.180,3.340,3.410,3.850,4.070,4.300,4.570,4.880,4.990,5.510,6.010,6.210,6.640,7.040,7.410,7.690,8.620,8.650,8.890,9.260,9.550,9.780,9.980,10.050,10.420,10.570,11.300,11.520,11.840,11.940,12.410,12.620,12.890,13.080,13.280,13.680,13.910,14.100,14.370,14.660,15.290,15.520,16.080,16.385" 
8543-280375-0038 ",SO,THEY,KINDLED,A,FIRE,AND,DINED,ON,SOME,OF,THE,CHEESES,AND,SAT,WAITING,FOR,THE,GIANT,TO,RETURN,,TOWARDS,EVENING,HE,CAME,,DRIVING,HIS,FLOCKS,BEFORE,HIM,,AND,CARRYING,ON,HIS,BACK,A,HUGE,LOAD,OF,FIREWOOD," "0.410,0.610,0.750,1.210,1.280,1.710,1.950,2.320,2.430,2.650,2.710,2.810,3.410,3.630,3.970,4.360,4.530,4.640,5.070,5.190,5.680,6.400,6.920,7.410,7.590,8.110,8.200,8.650,8.880,9.360,9.840,10.250,10.380,10.580,11.130,11.260,11.510,11.850,11.910,12.400,12.720,12.820,13.520,13.645" 
8543-280375-0039 ",FLED,IN,FEAR,AND,HID,THEMSELVES,IN,THE,DARKEST,CORNERS,OF,THE,CAVE,,WHEN,HE,HAD,DRIVEN,HIS,SHEEP,INSIDE,,POLYPHEMUS,,LIFTED,FROM,THE,GROUND,,A,ROCK,,SO,HUGE,,THAT,TWO,,AND,TWENTY,FOUR,WHEELED,,WAGONS,,COULD,NOT,HAVE,BORNE,IT," "0.130,0.480,0.640,1.050,1.240,1.540,2.160,2.250,2.360,2.750,3.170,3.290,3.370,3.820,4.430,4.610,4.780,4.970,5.320,5.520,5.850,6.480,6.700,7.490,7.540,8.070,8.380,8.470,8.870,8.900,9.010,9.560,9.870,10.150,10.690,10.740,11.040,11.410,11.440,11.620,12.110,12.740,13.210,13.250,13.910,13.960,14.170,14.420,14.650,15.000,15.260,15.49" 
8543-280375-0040 ",AND,WITH,IT,BLOCKED,THE,DOORWAY,,THEN,,SITTING,DOWN,,HE,MILKED,,THE,EWES,AND,BLEATING,GOATS," "0.290,0.550,0.760,1.020,1.470,1.580,2.200,2.640,3.170,3.460,3.900,4.350,4.520,4.730,5.170,5.200,5.380,5.810,5.990,6.370,6.890,7.035" 
8543-280375-0041 ",HALF,OF,THE,MILK,HE,CURDLED,AND,PLACED,IN,WICKER,BASKETS,TO,MAKE,INTO,CHEESES," "0.340,0.650,0.800,0.890,1.220,1.400,2.020,2.190,2.690,2.980,3.290,3.850,3.970,4.280,4.490,5.230,5.36" 
8543-280375-0042 ",BUT,ODYSSEUS,MADE,ANSWER," "0.180,0.360,1.010,1.280,1.900,2.055" 